                                   MODFLOW 6
                U.S. GEOLOGICAL SURVEY MODULAR HYDROLOGIC MODEL
                            VERSION 6.2.0 10/22/2020

   MODFLOW 6 compiled Oct 22 2020 09:26:42 with IFORT compiler (ver. 19.10.2)

This software has been approved for release by the U.S. Geological 
Survey (USGS). Although the software has been subjected to rigorous 
review, the USGS reserves the right to update the software as needed 
pursuant to further analysis and review. No warranty, expressed or 
implied, is made by the USGS or the U.S. Government as to the 
functionality of the software and related material nor shall the 
fact of release constitute any such warranty. Furthermore, the 
software is released on condition that neither the USGS nor the U.S. 
Government shall be held liable for any damages resulting from its 
authorized or unauthorized use. Also refer to the USGS Water 
Resources Software User Rights Notice for complete use, copyright, 
and distribution information.


System command used to initiate simulation:
mf6.exe

MODFLOW was compiled using uniform precision.

Real Variables
  KIND: 8
  TINY (smallest non-zero value):    2.225074-308
  HUGE (largest value):    1.797693+308
  PRECISION: 15
  BIT SIZE: 64

Integer Variables
  KIND: 4
  HUGE (largest value): 2147483647
  BIT SIZE: 32

Long Integer Variables
  KIND: 8
  HUGE (largest value): 9223372036854775807
  BIT SIZE: 64

Logical Variables
  KIND: 4
  BIT SIZE: 32
 

 OPENED mfsim.nam
 FILE TYPE:NAM   UNIT 1001   STATUS:OLD                 
 FORMAT:FORMATTED              ACCESS:SEQUENTIAL          
 ACTION:READ                

 # File generated by Flopy version 3.3.4 on 05/14/2021 at 09:58:04.

 READING SIMULATION OPTIONS
 END OF SIMULATION OPTIONS

 READING SIMULATION TIMING

 OPENED mfsim.tdis
 FILE TYPE:TDIS   UNIT 1002   STATUS:OLD                 
 FORMAT:FORMATTED              ACCESS:SEQUENTIAL          
 ACTION:READ                


 TDIS -- TEMPORAL DISCRETIZATION PACKAGE,
 VERSION 1 : 11/13/2014 - INPUT READ FROM UNIT 1002
 # File generated by Flopy version 3.3.4 on 05/14/2021 at 09:58:04.
 PROCESSING TDIS OPTIONS
    SIMULATION TIME UNIT IS DAYS
    SIMULATION STARTING DATE AND TIME IS 2011-01-01                    
 END OF TDIS OPTIONS
 PROCESSING TDIS DIMENSIONS
    1 STRESS PERIOD(S) IN SIMULATION
 END OF TDIS DIMENSIONS
 PROCESSING TDIS PERIODDATA


 STRESS PERIOD     LENGTH       TIME STEPS     MULTIPLIER FOR DELT
 ----------------------------------------------------------------------------
        1         1.000000          1                    1.000
 END OF TDIS PERIODDATA
 END OF SIMULATION TIMING

 READING SIMULATION MODELS
    GWF6 model NEVERSINK will be created as model 1
 END OF SIMULATION MODELS

 READING SIMULATION EXCHANGES
 END OF SIMULATION EXCHANGES

 READING SOLUTIONGROUP

 Creating solution: SLN_1           

 OPENED mfsim.ims
 FILE TYPE:IMS   UNIT 1014   STATUS:OLD                 
 FORMAT:FORMATTED              ACCESS:SEQUENTIAL          
 ACTION:READ                

 END OF SIMULATION SOLUTIONGROUP

 IMS -- ITERATIVE MODEL SOLUTION PACKAGE, VERSION 6, 4/28/2017
         INPUT READ FROM UNIT 1014
 # File generated by Flopy version 3.3.4 on 05/14/2021 at 09:58:04.

 PROCESSING IMS OPTIONS
 COMPLEX OPTION:
 DEFAULT SOLVER INPUT VALUES REFLECT STRONGLY NONLINEAR MODEL
 END OF IMS OPTIONS

 PROCESSING IMS NONLINEAR
 END OF IMS NONLINEAR DATA
 **UNDER-RELAXATION WILL BE USED***
 
 ***IMS LINEAR SOLVER WILL BE USED***

 IMSLINEAR -- UNSTRUCTURED LINEAR SOLUTION PACKAGE, VERSION 8, 04/28/2017

 PROCESSING LINEAR DATA
 END OF LINEAR DATA
 
 OUTER ITERATION CONVERGENCE CRITERION    (DVCLOSE) =    0.100000E-01
 MAXIMUM NUMBER OF OUTER ITERATIONS        (MXITER) = 200
 SOLVER PRINTOUT INDEX                     (IPRIMS) = 2
 NONLINEAR ITERATION METHOD            (NONLINMETH) = 3
 LINEAR SOLUTION METHOD                   (LINMETH) = 1
 UNDER-RELAXATION WEIGHT REDUCTION FACTOR   (THETA) =    0.700000E+00
 UNDER-RELAXATION WEIGHT INCREASE INCREMENT (KAPPA) =    0.100000E+00
 UNDER-RELAXATION PREVIOUS HISTORY FACTOR   (GAMMA) =    0.000000E+00
 UNDER-RELAXATION MOMENTUM TERM         (AMOMENTUM) =    0.000000E+00

       SOLUTION BY THE BICONJUGATE-GRADIENT STABILIZED METHOD
 ------------------------------------------------------------------
 MAXIMUM OF 200 CALLS OF SOLUTION ROUTINE
 MAXIMUM OF 175 INTERNAL ITERATIONS PER CALL TO SOLUTION ROUTINE
 LINEAR ACCELERATION METHOD            = BCGS      
 MATRIX PRECONDITIONING TYPE           = INCOMPLETE LUT      
 MATRIX SCALING APPROACH               = NO SCALING          
 MATRIX REORDERING APPROACH            = ORIGINAL ORDERING        
 NUMBER OF ORTHOGONALIZATIONS          = 0
 HEAD CHANGE CRITERION FOR CLOSURE     =    0.10000E-03
 RESIDUAL CHANGE CRITERION FOR CLOSURE =    0.10000E+04
 RESIDUAL CONVERGENCE OPTION           = 1
 RESIDUAL CONVERGENCE NORM             = INFINITY NORM S 
 RELAXATION FACTOR                     =    0.00000E+00
 NUMBER OF LEVELS                      =               
 DROP TOLERANCE                        =    0.10000E-02


1
                            STRESS PERIOD NO.    1, LENGTH =   1.000000    
                            -----------------------------------------------

                              NUMBER OF TIME STEPS =     1

                               MULTIPLIER FOR DELT =     1.000

                            INITIAL TIME STEP SIZE =   1.000000    



 PSEUDO-TRANSIENT CONTINUATION WILL BE APPLIED TO MODEL 1 ("NEVERSINK") DURING THIS TIME STEP

 OUTER ITERATION SUMMARY
 ----------------------------------------------------------------------------------------------------------
                                OUTER      INNER                    STEP   MAXIMUM CHANGE MODEL-(CELLID) OR
 OUTER ITERATION STEP       ITERATION  ITERATION  MAXIMUM CHANGE SUCCESS             MODEL-PACKAGE-(NUMBER)
 ----------------------------------------------------------------------------------------------------------
 Model                              1        135      -110.54216                          1_GWF-(4,331,548)
 Model                              2        175      -105.55401                          1_GWF-(4,220,557)
 Model                              3        175      -31.872782                          1_GWF-(1,478,474)
 Model                              4        175       29.325436                          1_GWF-(4,473,530)
 Model                              5        175       22.306262                          1_GWF-(1,481,470)
 Model                              6        175       16.696000                           1_GWF-(1,154,65)
 Model                              7        175      -9.6088729                          1_GWF-(1,436,392)
 Model                              8        175      -6.8098494                          1_GWF-(1,417,392)
 Model                              9        107      -4.6043750                          1_GWF-(1,416,394)
 Model                             10        136      -1.2641396                          1_GWF-(1,276,393)
 Model                             11         76      0.66166429                          1_GWF-(1,444,364)
 Model                             12         82      0.47820205                          1_GWF-(1,281,181)
 Model                             13         57      0.13201062                          1_GWF-(1,281,181)
 Model                             14         31 -5.48628267E-02                          1_GWF-(4,455,332)
 Model                             15         43 -4.10333353E-02                          1_GWF-(4,455,332)
 Model                             16         28 -1.89034767E-02                          1_GWF-(4,455,331)
 Model                             17         26 -9.56732535E-03                          1_GWF-(4,455,331)
 Model                             18          9 -6.30885490E-03                          1_GWF-(4,455,331)
 Model                             19         10 -1.52669755E-03                          1_GWF-(4,455,331)
 Model                             20          3 -5.01784829E-04                          1_GWF-(4,455,331)
 Model                             21          1 -9.30413322E-05       *                  1_GWF-(4,204,221)
 Package                           21             4.25263608E-03       *         1_GWF-SFR_0-(12286)-inflow
 ----------------------------------------------------------------------------------------------------------


 21 CALLS TO NUMERICAL SOLUTION IN TIME STEP 1 STRESS PERIOD 1
 1969 TOTAL ITERATIONS

 INNER ITERATION SUMMARY
 --------------------------------------------------------------------------------------------------------------------------------------
      TOTAL      OUTER      INNER                                                            MAXIMUM                                   
  ITERATION  ITERATION  ITERATION  MAXIMUM CHANGE      MAXIMUM CHANGE MODEL-(CELLID)        RESIDUAL    MAXIMUM RESIDUAL MODEL-(CELLID)
 --------------------------------------------------------------------------------------------------------------------------------------
          1          1          1      -28.928646                    1_GWF-(4,88,82)       41829.038                  1_GWF-(2,242,540)
          2          1          2      -13.845190                    1_GWF-(3,88,82)       20823.693                  1_GWF-(2,274,532)
          3          1          3      -10.819068                  1_GWF-(4,331,548)       14621.751                  1_GWF-(2,275,531)
          4          1          4      -10.567534                  1_GWF-(4,331,548)       12135.138                  1_GWF-(2,272,532)
          5          1          5      -9.3512465                  1_GWF-(4,331,548)       9876.5215                  1_GWF-(2,271,531)
          6          1          6      -8.4674728                  1_GWF-(4,331,548)       7698.4074                  1_GWF-(2,271,531)
          7          1          7      -7.1216973                  1_GWF-(4,330,547)       5618.1179                  1_GWF-(2,270,531)
          8          1          8      -6.7683766                  1_GWF-(4,329,547)       4328.8822                  1_GWF-(2,269,531)
          9          1          9      -5.3772227                  1_GWF-(4,329,547)       3245.0453                  1_GWF-(2,269,531)
         10          1         10      -5.3186564                  1_GWF-(4,295,551)       2410.3247                  1_GWF-(2,269,531)
         11          1         11      -4.9064050                  1_GWF-(4,295,551)       2035.6872                  1_GWF-(2,273,527)
         12          1         12      -4.9998719                  1_GWF-(4,295,550)       1896.3832                  1_GWF-(2,271,527)
         13          1         13      -4.5663737                  1_GWF-(4,295,550)       1757.3968                  1_GWF-(2,272,526)
         14          1         14      -4.6395580                  1_GWF-(1,300,557)       1600.4800                  1_GWF-(2,270,526)
         15          1         15      -4.3790839                  1_GWF-(1,300,557)       1472.2253                  1_GWF-(2,271,525)
         16          1         16      -4.3205413                  1_GWF-(1,300,557)       1333.7256                  1_GWF-(2,271,525)
         17          1         17      -4.0223991                  1_GWF-(1,300,557)       1198.2255                  1_GWF-(2,270,524)
         18          1         18      -3.7858649                  1_GWF-(1,300,557)       1047.1064                  1_GWF-(2,269,525)
         19          1         19      -3.4794129                  1_GWF-(1,301,557)       845.37567                  1_GWF-(2,269,525)
         20          1         20      -3.1221466                  1_GWF-(4,337,422)       699.20981                  1_GWF-(2,268,524)
         21          1         21      -2.7767047                  1_GWF-(4,337,421)      -620.88384                  1_GWF-(1,467,479)
         22          1         22      -2.5028666                  1_GWF-(1,323,553)      -583.22093                  1_GWF-(1,467,479)
         23          1         23      -2.2161798                  1_GWF-(1,323,553)      -541.88952                  1_GWF-(1,467,479)
         24          1         24      -1.9404577                  1_GWF-(1,321,553)       533.08590                  1_GWF-(2,287,527)
         25          1         25      -1.6989188                  1_GWF-(1,320,553)       567.21927                  1_GWF-(2,287,527)
         26          1         26      -1.6560106                  1_GWF-(1,319,555)       574.96564                  1_GWF-(2,287,527)
         27          1         27      -1.6122450                  1_GWF-(1,319,556)       582.56368                  1_GWF-(2,287,527)
         28          1         28      -1.5731402                  1_GWF-(1,318,556)       560.50545                  1_GWF-(2,287,527)
         29          1         29      -1.4738511                  1_GWF-(1,318,557)       549.04080                  1_GWF-(2,287,527)
         30          1         30      -1.4555874                  1_GWF-(1,317,558)       507.94835                  1_GWF-(2,287,527)
         31          1         31      -1.3495605                  1_GWF-(1,316,559)       483.59159                  1_GWF-(2,287,527)
         32          1         32      -1.2353933                  1_GWF-(1,316,559)      -444.53353                  1_GWF-(1,467,470)
         33          1         33      -1.1124403                   1_GWF-(1,30,130)      -471.74942                  1_GWF-(1,466,470)
         34          1         34       1.1286711                  1_GWF-(4,299,552)      -495.24500                  1_GWF-(1,465,470)
         35          1         35       1.0518580                  1_GWF-(4,299,552)      -509.03807                  1_GWF-(1,465,470)
         36          1         36       1.0089961                  1_GWF-(4,299,552)      -515.83059                  1_GWF-(1,465,470)
         37          1         37      0.87674278                  1_GWF-(4,299,552)      -514.63218                  1_GWF-(1,465,470)
         38          1         38      0.90235442                  1_GWF-(1,300,556)      -504.59741                  1_GWF-(1,465,470)
         39          1         39      0.72564235                  1_GWF-(4,264,556)      -486.78885                  1_GWF-(1,465,470)
         40          1         40       1.0775383                  1_GWF-(4,264,556)      -460.95793                  1_GWF-(1,464,469)
         41          1         41     -0.67510627                   1_GWF-(1,26,115)      -442.48659                  1_GWF-(1,464,470)
         42          1         42      -1.8098042                   1_GWF-(1,27,115)      -359.80134                  1_GWF-(1,464,470)
         43          1         43      -11.698897                   1_GWF-(1,27,115)      -427.47355                  1_GWF-(2,286,527)
         44          1         44       11.015503                   1_GWF-(1,27,115)      -338.42989                  1_GWF-(1,464,470)
         45          1         45     -0.41336531                  1_GWF-(4,264,555)      -342.59125                  1_GWF-(1,464,470)
         46          1         46     -0.56082680                   1_GWF-(1,26,115)      -312.22879                  1_GWF-(1,464,469)
         47          1         47       3.1100710                   1_GWF-(4,37,174)      -174.23629                  1_GWF-(1,466,470)
         48          1         48      0.23595282                   1_GWF-(1,15,117)      -164.67907                  1_GWF-(1,466,470)
         49          1         49      0.29742454                   1_GWF-(1,35,165)      -170.23994                  1_GWF-(1,465,469)
         50          1         50     -0.73179437                   1_GWF-(1,15,116)      -127.43441                  1_GWF-(1,465,469)
         51          1         51     -0.19771711                   1_GWF-(1,16,116)      -125.69904                  1_GWF-(1,464,470)
         52          1         52  3.86664432E-02                   1_GWF-(1,16,116)      -118.75951                  1_GWF-(1,464,469)
         53          1         53     -0.41199504                   1_GWF-(1,16,116)      -102.63377                  1_GWF-(1,464,470)
         54          1         54      0.34450087                  1_GWF-(1,468,458)      -96.163524                  1_GWF-(1,463,470)
         55          1         55  2.48231534E-02                   1_GWF-(1,32,123)      -81.380118                  1_GWF-(1,464,470)
         56          1         56      0.17112134                  1_GWF-(1,467,458)      -72.295619                  1_GWF-(1,464,470)
         57          1         57      0.56868248                  1_GWF-(1,318,570)      -79.409287                  1_GWF-(1,458,474)
         58          1         58     -0.43499454                  1_GWF-(1,467,454)      -77.439036                  1_GWF-(1,463,470)
         59          1         59       1.9571097                  1_GWF-(1,318,570)      -56.228410                  1_GWF-(1,462,470)
         60          1         60  3.24140384E-02                  1_GWF-(1,453,477)      -41.808883                  1_GWF-(1,463,470)
         61          1         61      0.19495628                  1_GWF-(3,453,478)      -37.352539                  1_GWF-(1,457,475)
         62          1         62 -2.29904758E-02                  1_GWF-(1,456,475)      -34.402781                  1_GWF-(1,457,475)
         63          1         63  3.84893737E-02                  1_GWF-(1,456,475)      -32.978476                  1_GWF-(1,457,475)
         64          1         64      0.13202940                  1_GWF-(1,320,575)      -29.811762                  1_GWF-(1,457,475)
         65          1         65  2.87392986E-03                   1_GWF-(1,41,123)      -28.700629                  1_GWF-(1,458,475)
         66          1         66  7.80641625E-02                  1_GWF-(1,455,476)      -25.985775                  1_GWF-(1,458,474)
         67          1         67      0.14411420                  1_GWF-(3,460,477)      -20.909448                  1_GWF-(1,485,472)
         68          1         68 -6.07016170E-02                  1_GWF-(1,455,477)      -24.317029                  1_GWF-(1,457,475)
         69          1         69  2.59810484E-02                  1_GWF-(1,455,475)      -22.420574                  1_GWF-(1,457,475)
         70          1         70  9.28368459E-02                   1_GWF-(1,39,123)      -22.980486                  1_GWF-(1,458,474)
         71          1         71  5.35137725E-02                  1_GWF-(1,455,477)      -18.238359                  1_GWF-(1,485,472)
         72          1         72  7.24167725E-03                   1_GWF-(1,37,120)      -19.627514                  1_GWF-(1,485,472)
         73          1         73  8.05979987E-02                  1_GWF-(2,455,477)      -18.008594                  1_GWF-(1,485,472)
         74          1         74      0.13227292                   1_GWF-(1,37,124)      -15.550130                  1_GWF-(1,485,472)
         75          1         75  1.13263472E-02                  1_GWF-(4,360,537)      -15.833437                  1_GWF-(1,485,473)
         76          1         76  1.74626073E-02                  1_GWF-(1,455,477)      -15.154224                  1_GWF-(1,485,472)
         77          1         77  7.15353448E-02                  1_GWF-(2,453,477)      -15.080598                  1_GWF-(1,485,473)
         78          1         78  8.01235537E-03                  1_GWF-(1,454,478)      -14.570106                  1_GWF-(1,485,472)
         79          1         79 -8.63907559E-03                  1_GWF-(2,456,475)      -14.817342                  1_GWF-(1,485,471)
         80          1         80  7.79708824E-02                  1_GWF-(2,455,477)      -13.372369                  1_GWF-(1,485,472)
         81          1         81  1.48422675E-02                   1_GWF-(1,38,122)      -12.900649                  1_GWF-(1,485,471)
         82          1         82      0.11906549                  1_GWF-(2,455,477)      -10.956593                  1_GWF-(1,485,472)
         83          1         83  1.54860702E-02                  1_GWF-(1,455,477)      -11.347316                  1_GWF-(1,485,472)
         84          1         84 -4.75381862E-02                  1_GWF-(1,455,477)      -13.219473                  1_GWF-(1,485,471)
         85          1         85  1.90764130E-02                   1_GWF-(1,39,121)      -10.606665                  1_GWF-(1,485,472)
         86          1         86  5.18712969E-02                   1_GWF-(1,38,122)      -9.2216530                  1_GWF-(1,485,472)
         87          1         87  2.37309373E-02                   1_GWF-(1,38,123)      -9.3882537                  1_GWF-(2,269,530)
         88          1         88      0.20605363                   1_GWF-(1,38,122)      -9.9766566                  1_GWF-(2,266,531)
         89          1         89     -0.13353093                   1_GWF-(1,38,122)      -8.6974599                  1_GWF-(2,268,529)
         90          1         90  1.18753911E-02                  1_GWF-(1,487,472)      -9.0978713                  1_GWF-(2,268,529)
         91          1         91     -0.45517449                   1_GWF-(1,38,122)      -18.236958                  1_GWF-(1,486,472)
         92          1         92      0.52545111                   1_GWF-(1,38,122)      -8.6518525                  1_GWF-(2,268,529)
         93          1         93  8.99689528E-03                  1_GWF-(1,486,472)      -7.9353937                  1_GWF-(2,269,530)
         94          1         94     -0.15218245                  1_GWF-(1,487,471)      -9.2624188                  1_GWF-(2,269,529)
         95          1         95      0.21994704                  1_GWF-(1,486,471)      -7.7290278                  1_GWF-(2,268,529)
         96          1         96 -1.19073696E-02                  1_GWF-(1,486,472)      -7.6713182                  1_GWF-(2,268,529)
         97          1         97  8.18326456E-03                  1_GWF-(1,487,471)       7.5657939                  1_GWF-(1,457,475)
         98          1         98  2.17923688E-02                  1_GWF-(1,487,472)       8.0402872                  1_GWF-(1,458,475)
         99          1         99  2.45624926E-02                  1_GWF-(1,487,471)       8.2454327                  1_GWF-(1,457,475)
        100          1        100  3.27747608E-02                  1_GWF-(1,488,471)       9.7499483                  1_GWF-(1,458,475)
        101          1        101  1.43770782E-02                  1_GWF-(1,487,471)       8.3125945                  1_GWF-(1,458,475)
        102          1        102  2.92383118E-02                  1_GWF-(1,486,472)       8.3228179                  1_GWF-(1,457,475)
        103          1        103     -0.34521476                  1_GWF-(1,487,472)      -17.476084                  1_GWF-(2,266,532)
        104          1        104      0.27011413                  1_GWF-(1,487,472)       7.6472032                  1_GWF-(1,457,475)
        105          1        105      0.11809349                  1_GWF-(1,487,472)       7.4538500                  1_GWF-(1,457,474)
        106          1        106  3.55698133E-02                  1_GWF-(1,486,472)       17.289837                  1_GWF-(1,463,470)
        107          1        107     -0.18893124                  1_GWF-(1,487,472)      -7.8174937                  1_GWF-(2,266,531)
        108          1        108      0.18732204                  1_GWF-(1,487,471)       7.1685568                  1_GWF-(1,458,475)
        109          1        109  4.90244379E-03                  1_GWF-(1,486,472)       6.9286175                  1_GWF-(1,457,475)
        110          1        110  2.65824905E-02                  1_GWF-(1,487,471)       6.9277652                  1_GWF-(1,458,474)
        111          1        111  1.09882255E-03                  1_GWF-(4,484,471)       6.9589924                  1_GWF-(1,458,474)
        112          1        112 -5.97853395E-03                  1_GWF-(1,487,471)       6.7577758                  1_GWF-(1,457,475)
        113          1        113  3.73080968E-03                  1_GWF-(1,488,472)       6.8906649                  1_GWF-(1,457,475)
        114          1        114  1.05785948E-02                  1_GWF-(1,413,395)       6.4428001                  1_GWF-(1,458,474)
        115          1        115  2.52259701E-03                  1_GWF-(1,415,394)       6.5219754                  1_GWF-(1,457,475)
        116          1        116  8.77028262E-03                  1_GWF-(1,413,395)       6.2759326                  1_GWF-(1,457,475)
        117          1        117 -8.85091271E-03                   1_GWF-(4,39,121)       6.2905061                  1_GWF-(1,463,470)
        118          1        118 -8.37641544E-04                  1_GWF-(1,290,520)       6.0481000                  1_GWF-(1,458,475)
        119          1        119  8.17990479E-03                  1_GWF-(1,415,394)       5.8173040                  1_GWF-(1,457,475)
        120          1        120  2.61906273E-03                  1_GWF-(1,413,395)       5.5473844                  1_GWF-(1,458,474)
        121          1        121      -1.1387365                  1_GWF-(2,455,477)      -46.682492                  1_GWF-(1,458,474)
        122          1        122       2.0520033                  1_GWF-(2,455,477)       44.707939                  1_GWF-(1,458,474)
        123          1        123      -1.0319369                  1_GWF-(2,455,477)       3.8511499                  1_GWF-(1,463,470)
        124          1        124 -3.13129503E-03                  1_GWF-(1,290,520)       3.7391994                  1_GWF-(1,464,471)
        125          1        125  1.72626157E-03                  1_GWF-(1,290,525)       1.4751483                  1_GWF-(1,458,473)
        126          1        126 -5.46309842E-03                   1_GWF-(4,35,120)       2.3941196                  1_GWF-(1,461,472)
        127          1        127  8.28155629E-03                   1_GWF-(4,35,120)       1.4379135                  1_GWF-(1,485,472)
        128          1        128  1.99979407E-03                   1_GWF-(1,37,120)       1.3886139                  1_GWF-(1,485,472)
        129          1        129  1.95210657E-03                   1_GWF-(1,36,124)       1.4306991                  1_GWF-(1,485,472)
        130          1        130 -2.97205374E-04                   1_GWF-(4,38,122)       1.3786019                  1_GWF-(1,485,472)
        131          1        131  3.69041368E-03                   1_GWF-(1,37,123)       1.2666098                  1_GWF-(1,485,472)
        132          1        132  5.28398192E-04                   1_GWF-(4,35,119)       1.2844949                  1_GWF-(1,485,473)
        133          1        133 -8.11360055E-04                   1_GWF-(1,37,124)       1.2911903                  1_GWF-(1,485,473)
        134          1        134  6.43381471E-03                   1_GWF-(1,37,123)       1.1645292                  1_GWF-(1,485,472)
        135          1        135 -8.92555888E-05                  1_GWF-(1,486,474)       1.2298004                  1_GWF-(1,485,472)
        136          2          1      -14.398158                  1_GWF-(4,292,559)       1497.1774                  1_GWF-(1,466,469)
        137          2          2       13.247590                  1_GWF-(4,205,590)       1426.4175                  1_GWF-(1,465,470)
        138          2          3      -13.244427                  1_GWF-(4,285,547)       1439.0480                  1_GWF-(1,465,470)
        139          2          4      -15.278877                  1_GWF-(4,268,557)       1379.0279                  1_GWF-(1,464,471)
        140          2          5      -15.717045                  1_GWF-(4,322,538)       1322.0139                  1_GWF-(1,464,471)
        141          2          6      -14.826606                  1_GWF-(4,321,537)       1161.8349                  1_GWF-(1,463,472)
        142          2          7      -37.709617                  1_GWF-(4,265,553)       1366.5260                   1_GWF-(1,56,145)
        143          2          8      -37.547690                  1_GWF-(4,269,551)       1176.6070                   1_GWF-(1,56,145)
        144          2          9      -9.3066525                  1_GWF-(4,322,538)       1069.7252                   1_GWF-(1,57,145)
        145          2         10       36.172343                  1_GWF-(4,265,553)       1132.4646                   1_GWF-(1,56,145)
        146          2         11      -3588.5880                  1_GWF-(4,322,538)       27554.153                  1_GWF-(4,217,570)
        147          2         12       3024.7990                  1_GWF-(4,322,538)      -4976.3441                  1_GWF-(4,211,570)
        148          2         13       531.45107                  1_GWF-(4,322,538)       1096.5091                   1_GWF-(1,56,145)
        149          2         14       69.828737                  1_GWF-(4,322,538)       1031.5368                   1_GWF-(1,56,145)
        150          2         15      -31.110123                  1_GWF-(4,322,538)       1001.4068                   1_GWF-(1,56,145)
        151          2         16       2.8867739                  1_GWF-(1,324,525)       1014.7306                   1_GWF-(1,56,145)
        152          2         17      -22.702808                  1_GWF-(1,324,525)       918.51110                   1_GWF-(1,52,141)
        153          2         18       4.6091683                  1_GWF-(1,324,525)       892.96257                   1_GWF-(1,52,141)
        154          2         19      -7.1701490                  1_GWF-(4,355,516)       892.01978                   1_GWF-(1,52,141)
        155          2         20       19.042095                  1_GWF-(4,266,541)       807.06012                   1_GWF-(1,52,141)
        156          2         21      -4.3468683                  1_GWF-(4,375,511)       780.40634                   1_GWF-(1,52,141)
        157          2         22      -1.8442325                  1_GWF-(4,266,542)       728.35292                   1_GWF-(1,51,141)
        158          2         23      -5.3983042                  1_GWF-(4,266,541)       775.15381                   1_GWF-(1,52,141)
        159          2         24      -1.4031888                  1_GWF-(4,374,511)       721.46405                   1_GWF-(1,52,141)
        160          2         25       6.1721921                  1_GWF-(4,375,511)       797.25972                   1_GWF-(1,52,141)
        161          2         26       7.4030398                  1_GWF-(4,375,511)       847.16945                   1_GWF-(1,52,141)
        162          2         27      -18.622021                  1_GWF-(4,375,511)       666.40714                   1_GWF-(1,52,141)
        163          2         28       1.5528510                  1_GWF-(4,375,511)       674.04260                   1_GWF-(1,52,141)
        164          2         29       2.2298810                  1_GWF-(4,335,522)       663.84684                   1_GWF-(1,52,141)
        165          2         30      -25.757459                  1_GWF-(4,375,511)       391.94142                   1_GWF-(1,52,141)
        166          2         31      -3.4880381                  1_GWF-(4,374,511)       347.13370                   1_GWF-(1,52,141)
        167          2         32      -5.7176494                  1_GWF-(4,374,511)       269.72834                   1_GWF-(1,52,141)
        168          2         33      0.92420215                  1_GWF-(4,354,516)       305.74664                  1_GWF-(2,203,556)
        169          2         34       19.337535                  1_GWF-(4,374,511)       593.92682                   1_GWF-(1,52,141)
        170          2         35      -41.158617                  1_GWF-(4,374,511)       239.93169                  1_GWF-(1,464,479)
        171          2         36      -2.3209624                  1_GWF-(4,374,511)       228.61396                  1_GWF-(1,464,479)
        172          2         37       23.926806                  1_GWF-(4,374,511)       185.80421                  1_GWF-(1,457,475)
        173          2         38     -0.44251979                  1_GWF-(4,192,564)       190.32420                  1_GWF-(1,464,479)
        174          2         39       4.9343128                  1_GWF-(4,236,559)       202.06451                  1_GWF-(1,457,475)
        175          2         40      -30.011009                  1_GWF-(4,236,559)      -271.63011                   1_GWF-(1,51,141)
        176          2         41       11.039564                  1_GWF-(4,236,559)       171.45151                  1_GWF-(1,485,473)
        177          2         42      -10.843934                  1_GWF-(4,236,559)       270.13919                  1_GWF-(2,234,543)
        178          2         43       10.456491                  1_GWF-(4,236,559)      -187.08485                   1_GWF-(1,51,141)
        179          2         44       5.0238183                  1_GWF-(4,236,559)       179.28054                  1_GWF-(1,485,472)
        180          2         45     -0.51146643                  1_GWF-(4,402,508)       174.25613                  1_GWF-(1,485,472)
        181          2         46       1.5653797                  1_GWF-(4,282,564)       171.99907                  1_GWF-(1,485,472)
        182          2         47       9.6834747                  1_GWF-(4,282,564)      -236.55133                   1_GWF-(1,51,141)
        183          2         48      -4.0450012                  1_GWF-(4,282,564)      -226.91698                   1_GWF-(1,51,141)
        184          2         49     -0.17335326                   1_GWF-(1,37,157)      -181.96643                   1_GWF-(1,52,141)
        185          2         50     -0.21438293                   1_GWF-(1,36,157)      -180.67534                   1_GWF-(1,52,141)
        186          2         51      0.24784315                  1_GWF-(4,236,550)      -221.25023                   1_GWF-(1,52,141)
        187          2         52     -0.75943700                   1_GWF-(4,42,158)      -184.81098                   1_GWF-(1,51,141)
        188          2         53     -0.27418664                  1_GWF-(4,365,514)      -174.02696                   1_GWF-(1,52,141)
        189          2         54       4.5834343                  1_GWF-(4,365,514)      -189.84826                   1_GWF-(1,56,145)
        190          2         55       2.5505220                  1_GWF-(4,365,514)      -212.32765                   1_GWF-(1,56,145)
        191          2         56      -3.5086414                   1_GWF-(1,40,153)      -197.56325                   1_GWF-(1,52,141)
        192          2         57      -1.0275106                  1_GWF-(4,365,514)      -180.14695                   1_GWF-(1,56,145)
        193          2         58      0.47568884                  1_GWF-(4,393,509)      -175.63675                   1_GWF-(1,56,145)
        194          2         59      0.18134566                  1_GWF-(4,402,508)      -169.06085                   1_GWF-(1,56,145)
        195          2         60  3.60975276E-02                  1_GWF-(4,184,566)      -170.90071                   1_GWF-(1,56,145)
        196          2         61 -9.36490520E-02                  1_GWF-(4,380,511)      -173.51504                   1_GWF-(1,56,145)
        197          2         62     -0.15156590                  1_GWF-(4,380,511)      -173.36325                   1_GWF-(1,56,145)
        198          2         63       2.3716273                  1_GWF-(4,376,511)      -148.31903                   1_GWF-(1,56,145)
        199          2         64      -4.7474769                  1_GWF-(4,376,511)      -197.32769                   1_GWF-(1,56,145)
        200          2         65      0.50382340                  1_GWF-(4,393,509)      -189.80524                   1_GWF-(1,52,141)
        201          2         66      -1369.9903                  1_GWF-(4,376,511)       16906.249                  1_GWF-(2,394,501)
        202          2         67       1374.9165                  1_GWF-(4,376,511)      -141.16250                   1_GWF-(1,56,145)
        203          2         68       13.426733                  1_GWF-(4,376,511)      -154.34688                  1_GWF-(2,394,501)
        204          2         69       179.62612                  1_GWF-(1,476,471)      -2461.1924                   1_GWF-(1,52,141)
        205          2         70      -65.205070                  1_GWF-(1,476,471)      -1337.2685                   1_GWF-(1,52,141)
        206          2         71      -344.29089                  1_GWF-(1,476,471)       2695.0380                   1_GWF-(1,52,141)
        207          2         72       218.52979                  1_GWF-(1,476,471)      -189.20394                  1_GWF-(2,394,501)
        208          2         73       9.6639635                  1_GWF-(1,476,471)      -97.953828                  1_GWF-(2,394,501)
        209          2         74      -2.4408154                  1_GWF-(4,376,511)      -75.976015                  1_GWF-(1,394,501)
        210          2         75  2.72342493E-02                  1_GWF-(4,376,511)      -74.433314                  1_GWF-(2,394,501)
        211          2         76     -0.30942207                  1_GWF-(1,476,471)      -77.994783                  1_GWF-(2,394,501)
        212          2         77      0.71230713                  1_GWF-(1,476,471)      -70.000593                  1_GWF-(1,394,501)
        213          2         78       2.1079696                  1_GWF-(1,476,471)       52.057825                  1_GWF-(1,485,473)
        214          2         79     -0.56045197                  1_GWF-(1,476,471)      -51.502604                   1_GWF-(1,79,120)
        215          2         80     -0.27139083                  1_GWF-(1,476,471)      -50.602477                   1_GWF-(1,79,120)
        216          2         81      0.16186919                  1_GWF-(4,200,564)      -50.773523                  1_GWF-(2,394,501)
        217          2         82     -0.18821907                  1_GWF-(4,376,511)      -49.115876                   1_GWF-(1,79,120)
        218          2         83     -0.47404095                  1_GWF-(4,200,564)      -52.396678                  1_GWF-(4,193,557)
        219          2         84      0.34859376                  1_GWF-(4,200,564)      -45.685533                   1_GWF-(1,79,120)
        220          2         85     -0.18290300                  1_GWF-(4,277,537)      -44.391320                   1_GWF-(1,79,120)
        221          2         86  6.63592956E-02                  1_GWF-(1,476,471)       45.533728                  1_GWF-(1,485,472)
        222          2         87 -5.58731359E-02                  1_GWF-(1,476,471)       44.652657                  1_GWF-(1,485,472)
        223          2         88       1.1678458                  1_GWF-(1,476,471)      -55.624759                   1_GWF-(1,79,120)
        224          2         89      0.33620214                  1_GWF-(1,476,471)      -58.857766                   1_GWF-(1,79,120)
        225          2         90      0.31249938                  1_GWF-(1,476,471)      -60.985892                   1_GWF-(1,79,120)
        226          2         91       7.7055512                  1_GWF-(1,476,471)      -122.04539                   1_GWF-(1,79,120)
        227          2         92      -14.603535                  1_GWF-(1,476,471)       32.270597                   1_GWF-(1,56,145)
        228          2         93      -2.3731464                  1_GWF-(1,476,471)       50.059912                   1_GWF-(1,56,145)
        229          2         94       2.2789016                  1_GWF-(1,476,471)       31.972966                   1_GWF-(1,56,145)
        230          2         95      -1.1082343                  1_GWF-(4,242,592)       25.114816                  1_GWF-(2,238,538)
        231          2         96      0.38963746                  1_GWF-(1,476,471)       22.734201                  1_GWF-(2,238,538)
        232          2         97 -9.16295484E-02                  1_GWF-(1,476,471)       22.347419                  1_GWF-(1,485,472)
        233          2         98      0.18588551                  1_GWF-(1,476,471)       23.741360                  1_GWF-(2,238,538)
        234          2         99      0.25054592                  1_GWF-(4,200,564)       24.108405                  1_GWF-(1,485,472)
        235          2        100     -0.30052976                  1_GWF-(4,200,564)       22.890413                  1_GWF-(1,485,472)
        236          2        101      0.31716690                  1_GWF-(1,375,258)       24.225926                  1_GWF-(1,485,473)
        237          2        102  5.76443633E-02                  1_GWF-(1,476,471)       24.118649                  1_GWF-(1,485,472)
        238          2        103  6.82741993E-02                  1_GWF-(1,476,471)       23.397592                  1_GWF-(1,485,472)
        239          2        104     -0.12902965                  1_GWF-(1,476,471)       22.552803                  1_GWF-(1,485,472)
        240          2        105     -0.13967350                  1_GWF-(4,199,564)       23.400708                  1_GWF-(1,485,472)
        241          2        106     -0.17013360                  1_GWF-(1,476,471)       22.259916                  1_GWF-(1,485,472)
        242          2        107      -1.5273831                  1_GWF-(1,476,471)       16.013310                  1_GWF-(2,258,533)
        243          2        108  2.35335024E-02                  1_GWF-(4,277,537)       16.096395                  1_GWF-(2,258,533)
        244          2        109  9.42202109E-02                  1_GWF-(1,476,471)       16.283410                  1_GWF-(2,258,534)
        245          2        110  5.99345965E-02                  1_GWF-(4,277,537)       16.246916                  1_GWF-(2,258,533)
        246          2        111     -0.31072621                  1_GWF-(1,476,471)       15.253068                  1_GWF-(2,259,533)
        247          2        112     -0.37759368                  1_GWF-(1,476,471)       14.092844                  1_GWF-(2,258,533)
        248          2        113 -8.59491257E-02                  1_GWF-(1,476,471)       14.574611                  1_GWF-(2,259,533)
        249          2        114 -3.44116154E-02                  1_GWF-(1,476,471)       13.733025                  1_GWF-(2,258,533)
        250          2        115  9.41234514E-02                  1_GWF-(1,476,471)       14.754725                  1_GWF-(2,258,533)
        251          2        116  2.52474506E-02                  1_GWF-(4,200,564)       14.072913                  1_GWF-(2,258,533)
        252          2        117     -0.16036031                  1_GWF-(1,476,471)       13.647892                  1_GWF-(2,258,534)
        253          2        118     -0.64318214                  1_GWF-(1,476,471)       11.521293                  1_GWF-(2,258,533)
        254          2        119 -4.10796489E-02                  1_GWF-(4,200,564)       11.759889                  1_GWF-(2,258,533)
        255          2        120     -0.37932526                  1_GWF-(1,476,471)       10.304396                  1_GWF-(2,258,533)
        256          2        121  6.99661274E-02                  1_GWF-(1,476,471)       11.232596                  1_GWF-(2,259,533)
        257          2        122 -4.45760336E-02                  1_GWF-(4,200,564)       10.723037                  1_GWF-(2,259,533)
        258          2        123  6.24430098E-02                  1_GWF-(1,476,471)       11.071610                  1_GWF-(2,258,533)
        259          2        124  7.87351652E-02                  1_GWF-(1,476,471)       11.065038                  1_GWF-(2,258,533)
        260          2        125  3.78189188E-02                  1_GWF-(1,216,361)       11.871691                  1_GWF-(2,258,533)
        261          2        126 -1.49337138E-02                  1_GWF-(4,277,537)       11.067257                  1_GWF-(2,258,533)
        262          2        127  5.00688773E-02                  1_GWF-(1,476,471)       11.230374                  1_GWF-(2,258,533)
        263          2        128  8.16444889E-02                  1_GWF-(4,200,564)       11.211018                  1_GWF-(2,258,533)
        264          2        129     -0.14801669                  1_GWF-(1,476,471)       10.632259                  1_GWF-(2,259,533)
        265          2        130     -0.40583736                  1_GWF-(4,200,564)       25.083598                  1_GWF-(4,199,563)
        266          2        131      0.30262084                  1_GWF-(4,200,564)       10.731656                  1_GWF-(2,258,533)
        267          2        132      -1.7970177                  1_GWF-(4,200,564)       124.34919                  1_GWF-(4,199,563)
        268          2        133       1.7591484                  1_GWF-(4,200,564)       12.667179                  1_GWF-(4,197,561)
        269          2        134      0.32601585                  1_GWF-(1,476,471)       11.179811                  1_GWF-(2,259,533)
        270          2        135  2.29384103E-02                  1_GWF-(4,277,537)       10.997190                  1_GWF-(2,258,533)
        271          2        136 -4.79069179E-02                  1_GWF-(1,476,471)       10.982338                  1_GWF-(2,258,533)
        272          2        137  8.24062412E-02                  1_GWF-(1,476,471)       11.008330                  1_GWF-(2,259,533)
        273          2        138  1.36746443E-02                  1_GWF-(4,200,564)       11.061087                  1_GWF-(2,258,533)
        274          2        139 -4.81536307E-02                  1_GWF-(1,476,471)       10.895634                  1_GWF-(2,258,533)
        275          2        140 -1.10395737E-02                  1_GWF-(1,476,471)       10.860791                  1_GWF-(2,258,533)
        276          2        141  5.89914747E-02                  1_GWF-(1,476,471)       10.948967                  1_GWF-(2,258,533)
        277          2        142     -0.48064047                  1_GWF-(1,476,471)       9.0543468                  1_GWF-(2,258,533)
        278          2        143       3.9646213                  1_GWF-(1,476,471)       26.674155                  1_GWF-(1,485,472)
        279          2        144      -5.9817809                  1_GWF-(1,476,471)       5.3922298                  1_GWF-(1,150,215)
        280          2        145       1.3148731                  1_GWF-(1,476,471)       6.1232518                  1_GWF-(2,258,533)
        281          2        146      0.18100614                  1_GWF-(1,476,471)       7.0266982                  1_GWF-(2,258,533)
        282          2        147     -0.10939061                  1_GWF-(1,476,471)       6.4901765                  1_GWF-(2,258,533)
        283          2        148  1.22811626E-02                  1_GWF-(1,476,471)       6.5563345                  1_GWF-(2,258,533)
        284          2        149  7.70187272E-02                  1_GWF-(1,476,471)       6.8673772                  1_GWF-(2,258,533)
        285          2        150 -4.21867343E-02                  1_GWF-(1,476,471)       6.7078151                  1_GWF-(2,258,533)
        286          2        151  1.70790731E-02                  1_GWF-(1,216,361)       6.9709614                  1_GWF-(2,258,533)
        287          2        152 -1.94739230E-03                  1_GWF-(1,386,384)       6.5912961                  1_GWF-(2,258,533)
        288          2        153  5.10615162E-02                  1_GWF-(1,216,361)       6.6997349                  1_GWF-(2,259,533)
        289          2        154 -5.26989867E-03                  1_GWF-(4,277,537)       6.4404752                  1_GWF-(2,258,533)
        290          2        155 -2.01962180E-02                  1_GWF-(1,386,384)       6.5749260                  1_GWF-(2,258,533)
        291          2        156      0.77947516                  1_GWF-(1,216,361)       3.4079620                  1_GWF-(2,258,533)
        292          2        157      -2.8891334                  1_GWF-(1,216,361)       15.251281                  1_GWF-(2,258,533)
        293          2        158       1.2826292                  1_GWF-(1,216,361)       9.7738267                  1_GWF-(2,258,533)
        294          2        159       1.0153715                  1_GWF-(1,216,361)       5.7312317                  1_GWF-(2,259,533)
        295          2        160  9.71712307E-02                  1_GWF-(1,216,361)       6.3456260                  1_GWF-(2,258,533)
        296          2        161 -2.07820471E-02                  1_GWF-(4,277,537)       5.4311820                  1_GWF-(2,258,533)
        297          2        162  3.11359498E-03                  1_GWF-(4,201,564)       5.4044186                  1_GWF-(2,258,533)
        298          2        163  2.91285316E-02                  1_GWF-(1,216,361)       5.3102469                  1_GWF-(2,258,533)
        299          2        164  5.92103745E-02                  1_GWF-(1,216,361)       5.0833469                  1_GWF-(2,258,533)
        300          2        165      0.13200356                  1_GWF-(1,216,361)       4.6018459                  1_GWF-(2,258,533)
        301          2        166  5.56382266E-03                  1_GWF-(1,216,361)       4.5792131                  1_GWF-(2,258,533)
        302          2        167 -8.07478697E-03                  1_GWF-(1,216,361)       4.6161983                  1_GWF-(2,258,533)
        303          2        168  3.45450080E-02                  1_GWF-(1,216,361)       4.4830564                  1_GWF-(2,258,533)
        304          2        169 -3.59060083E-03                  1_GWF-(1,216,361)       4.5060580                  1_GWF-(2,258,533)
        305          2        170  1.35060898E-03                  1_GWF-(4,199,563)       4.4289276                  1_GWF-(2,259,533)
        306          2        171 -4.10107088E-03                  1_GWF-(1,386,384)       4.4566532                  1_GWF-(2,259,533)
        307          2        172 -1.51156035E-03                  1_GWF-(1,422,275)       4.4781776                  1_GWF-(2,258,533)
        308          2        173 -2.02742165E-03                  1_GWF-(4,200,564)       4.5203701                  1_GWF-(2,258,533)
        309          2        174 -4.09311084E-03                  1_GWF-(1,216,361)       4.5258370                  1_GWF-(2,258,533)
        310          2        175  1.96276350E-02                  1_GWF-(1,216,361)       4.4399641                  1_GWF-(2,258,533)
        311          3          1      -11.774289                   1_GWF-(1,37,148)      -6796.1410                  1_GWF-(1,463,471)
        312          3          2       8.7227133                  1_GWF-(4,506,432)       2893.7760                  1_GWF-(2,261,529)
        313          3          3       7.6493779                  1_GWF-(4,506,432)       1700.0512                  1_GWF-(2,260,530)
        314          3          4       6.9274978                  1_GWF-(4,506,432)       1155.3072                  1_GWF-(2,259,530)
        315          3          5       3.7400871                  1_GWF-(4,506,432)       756.49844                  1_GWF-(2,237,537)
        316          3          6      -4.8388996                  1_GWF-(4,360,517)       594.83755                  1_GWF-(1,458,473)
        317          3          7      -4.3570257                  1_GWF-(4,361,515)       471.75164                  1_GWF-(1,458,473)
        318          3          8      -5.4867411                  1_GWF-(4,215,559)       377.56966                  1_GWF-(1,458,473)
        319          3          9      -4.5264487                  1_GWF-(4,215,558)       325.52677                   1_GWF-(1,56,145)
        320          3         10      -12.516763                  1_GWF-(4,274,548)       340.90444                   1_GWF-(1,56,145)
        321          3         11      -11.394370                  1_GWF-(4,275,547)      -363.45700                  1_GWF-(2,237,537)
        322          3         12      -9.6233987                  1_GWF-(4,439,504)      -380.72848                  1_GWF-(2,237,537)
        323          3         13      -12.188828                  1_GWF-(4,215,559)      -676.17070                  1_GWF-(4,209,565)
        324          3         14      -14.201599                  1_GWF-(4,208,568)      -475.64185                  1_GWF-(4,209,564)
        325          3         15      -27.148553                  1_GWF-(4,441,503)       366.58109                   1_GWF-(1,50,141)
        326          3         16      -34.162570                  1_GWF-(4,208,563)      -1065.6881                  1_GWF-(4,209,564)
        327          3         17       195.69025                  1_GWF-(4,209,565)      -5096.5477                  1_GWF-(4,209,563)
        328          3         18       90.027362                  1_GWF-(4,208,563)       4281.2053                  1_GWF-(4,209,565)
        329          3         19      -183.12083                  1_GWF-(4,209,565)       364.50079                  1_GWF-(4,209,565)
        330          3         20      -21.644463                  1_GWF-(4,209,565)       337.63128                   1_GWF-(1,50,141)
        331          3         21       55.352304                  1_GWF-(4,208,563)      -1445.0796                  1_GWF-(4,208,561)
        332          3         22      -77.892077                  1_GWF-(4,208,563)       294.67100                   1_GWF-(1,52,141)
        333          3         23      -9.4152536                  1_GWF-(4,207,561)       276.07412                   1_GWF-(1,52,141)
        334          3         24      -7.8177735                  1_GWF-(4,204,560)       263.94475                  1_GWF-(2,235,541)
        335          3         25       4.5781046                  1_GWF-(4,208,562)       262.32347                   1_GWF-(1,52,141)
        336          3         26       7.2725249                  1_GWF-(4,205,560)       240.44508                   1_GWF-(1,52,141)
        337          3         27      0.63467151                  1_GWF-(4,193,564)       237.04142                   1_GWF-(1,52,141)
        338          3         28       17.284719                  1_GWF-(4,204,560)       233.77894                  1_GWF-(4,335,521)
        339          3         29      -6.8603035                  1_GWF-(4,205,560)      -175.45339                   1_GWF-(1,45,144)
        340          3         30      -20.828647                  1_GWF-(4,204,560)       206.11347                  1_GWF-(4,200,561)
        341          3         31       11.132935                  1_GWF-(4,204,560)       146.74819                  1_GWF-(1,464,479)
        342          3         32       2.8992254                  1_GWF-(4,205,560)       143.73052                  1_GWF-(1,464,479)
        343          3         33      0.51555792                  1_GWF-(4,184,565)       141.89922                  1_GWF-(1,464,479)
        344          3         34      -1.7629659                  1_GWF-(4,184,565)       147.52382                  1_GWF-(1,464,479)
        345          3         35       3.8135142                  1_GWF-(4,204,560)       139.02548                  1_GWF-(1,464,479)
        346          3         36      -2.0799845                  1_GWF-(4,212,560)       144.75494                  1_GWF-(1,464,479)
        347          3         37       25.712051                  1_GWF-(4,396,508)      -312.14953                   1_GWF-(1,52,141)
        348          3         38      -22.291242                  1_GWF-(4,396,508)       133.15165                  1_GWF-(1,464,479)
        349          3         39       1.4167399                  1_GWF-(4,396,508)       125.30335                  1_GWF-(1,464,479)
        350          3         40     -0.36657730                  1_GWF-(4,200,562)       124.03413                  1_GWF-(1,464,479)
        351          3         41      -3.6608308                  1_GWF-(4,396,508)       136.69064                  1_GWF-(1,464,479)
        352          3         42      -67.301799                  1_GWF-(4,396,508)       1139.7436                   1_GWF-(1,54,141)
        353          3         43       59.530910                  1_GWF-(4,396,508)       193.56125                   1_GWF-(1,54,141)
        354          3         44       20.731373                  1_GWF-(4,396,508)      -162.94372                   1_GWF-(1,51,141)
        355          3         45      -1.6086611                  1_GWF-(4,396,508)      -138.93150                   1_GWF-(1,52,141)
        356          3         46      0.35762747                  1_GWF-(4,396,508)      -140.42498                   1_GWF-(1,52,141)
        357          3         47       2.6544569                  1_GWF-(4,204,560)      -104.84490                  1_GWF-(4,200,562)
        358          3         48      -1.7974509                  1_GWF-(4,202,561)       132.38742                  1_GWF-(4,200,561)
        359          3         49      -4.7827024                  1_GWF-(4,204,560)      -94.630747                   1_GWF-(1,52,141)
        360          3         50      0.51317586                  1_GWF-(4,200,562)      -100.81638                   1_GWF-(1,52,141)
        361          3         51      -1.0025425                  1_GWF-(4,200,562)      -102.23165                   1_GWF-(1,52,141)
        362          3         52      0.15238759                  1_GWF-(4,204,560)      -98.267120                   1_GWF-(1,52,141)
        363          3         53     -0.25291102                  1_GWF-(4,200,561)      -102.62536                   1_GWF-(1,52,141)
        364          3         54       5.1789614                  1_GWF-(1,478,474)       107.91376                  1_GWF-(1,464,479)
        365          3         55       1.1991532                  1_GWF-(4,200,562)      -108.24226                   1_GWF-(1,50,141)
        366          3         56      -3.8417209                  1_GWF-(1,478,474)      -93.596093                   1_GWF-(1,52,141)
        367          3         57       4.4009831                  1_GWF-(1,478,474)       109.34756                  1_GWF-(1,464,479)
        368          3         58      -14.625197                  1_GWF-(1,478,474)      -124.33471                  1_GWF-(4,200,561)
        369          3         59      -2.9676915                  1_GWF-(4,200,562)      -101.02544                   1_GWF-(1,56,145)
        370          3         60       1.3904842                  1_GWF-(1,478,474)      -90.706891                   1_GWF-(1,56,145)
        371          3         61      0.53742012                  1_GWF-(1,478,474)      -86.211192                   1_GWF-(1,56,145)
        372          3         62  7.58338929E-02                   1_GWF-(1,38,151)      -82.546240                   1_GWF-(1,56,145)
        373          3         63  9.23982613E-03                   1_GWF-(4,39,151)      -84.678512                   1_GWF-(1,56,145)
        374          3         64      -3.3548676                  1_GWF-(1,478,474)      -95.235241                   1_GWF-(1,56,145)
        375          3         65      -1.8404085                  1_GWF-(4,184,565)      -86.541777                   1_GWF-(1,55,145)
        376          3         66       2.0865867                  1_GWF-(1,478,474)      -80.622581                   1_GWF-(1,56,145)
        377          3         67     -0.22198236                  1_GWF-(4,200,562)      -84.764032                   1_GWF-(1,56,145)
        378          3         68      0.26724266                  1_GWF-(1,478,474)      -82.921703                   1_GWF-(1,56,145)
        379          3         69      -10.441736                  1_GWF-(1,478,474)      -60.122833                   1_GWF-(1,56,145)
        380          3         70       2.8010503                  1_GWF-(1,478,474)      -65.405997                   1_GWF-(1,56,145)
        381          3         71     -0.75344828                  1_GWF-(1,478,474)      -61.057652                   1_GWF-(1,56,145)
        382          3         72     -0.39636862                  1_GWF-(4,200,562)      -56.690822                   1_GWF-(1,56,145)
        383          3         73       1.5074585                  1_GWF-(1,478,474)      -61.572887                   1_GWF-(1,56,145)
        384          3         74      0.57306375                  1_GWF-(1,478,474)      -62.846970                   1_GWF-(1,56,145)
        385          3         75      0.10005467                  1_GWF-(1,478,474)      -62.792044                   1_GWF-(1,56,145)
        386          3         76     -0.10257336                  1_GWF-(1,478,474)      -60.065928                   1_GWF-(1,56,145)
        387          3         77      -1.6627022                   1_GWF-(1,18,143)      -42.590778                  1_GWF-(4,200,561)
        388          3         78      0.21151904                  1_GWF-(4,200,562)      -46.030779                  1_GWF-(4,200,561)
        389          3         79      -1.0281781                  1_GWF-(1,478,474)      -20.680072                   1_GWF-(1,79,120)
        390          3         80      -2.9641196                  1_GWF-(1,478,474)      -19.058957                   1_GWF-(1,79,120)
        391          3         81      0.61433296                  1_GWF-(1,478,474)      -20.005802                   1_GWF-(1,79,120)
        392          3         82      -2.2027475                  1_GWF-(1,478,474)      -18.358445                   1_GWF-(1,79,120)
        393          3         83       1.7808190                  1_GWF-(1,478,474)      -19.191112                   1_GWF-(1,79,120)
        394          3         84      0.13315941                   1_GWF-(1,39,150)      -19.285230                   1_GWF-(1,79,120)
        395          3         85      0.23115661                  1_GWF-(1,478,474)      -18.595555                   1_GWF-(1,79,120)
        396          3         86  7.82474533E-02                  1_GWF-(4,200,562)      -18.494666                   1_GWF-(1,79,120)
        397          3         87 -5.82469211E-02                  1_GWF-(1,478,474)      -18.331470                   1_GWF-(1,79,120)
        398          3         88     -0.78194187                  1_GWF-(1,478,474)      -16.733429                   1_GWF-(1,79,120)
        399          3         89       1.7780956                  1_GWF-(1,478,474)      -19.818676                   1_GWF-(1,79,120)
        400          3         90      -2.9490126                  1_GWF-(1,478,474)       15.374441                  1_GWF-(2,258,533)
        401          3         91 -9.07914972E-02                  1_GWF-(1,478,474)       14.997230                  1_GWF-(2,259,533)
        402          3         92     -0.90327478                  1_GWF-(4,204,560)       15.148428                  1_GWF-(2,258,533)
        403          3         93       1.5450084                  1_GWF-(4,204,560)       14.553893                  1_GWF-(2,259,533)
        404          3         94     -0.34036453                  1_GWF-(4,204,560)       14.629705                  1_GWF-(2,258,533)
        405          3         95      0.28174545                  1_GWF-(1,478,474)       14.488769                  1_GWF-(2,258,533)
        406          3         96      0.65035925                  1_GWF-(1,478,474)      -15.243596                   1_GWF-(1,79,120)
        407          3         97      -1.8317538                  1_GWF-(1,478,474)       15.201298                  1_GWF-(4,200,562)
        408          3         98     -0.46791695                  1_GWF-(4,200,562)       13.529942                  1_GWF-(2,259,533)
        409          3         99      -1.6285716                  1_GWF-(1,478,474)       12.125640                  1_GWF-(2,258,533)
        410          3        100      -3.5543781                  1_GWF-(1,478,474)       17.440956                   1_GWF-(1,56,145)
        411          3        101       4.3390191                  1_GWF-(1,478,474)       12.705559                  1_GWF-(2,258,533)
        412          3        102      0.53978649                  1_GWF-(4,204,560)       12.748373                  1_GWF-(2,258,533)
        413          3        103      0.19316590                  1_GWF-(4,200,562)       12.467803                  1_GWF-(2,259,533)
        414          3        104      -1.2426388                  1_GWF-(1,478,474)      -15.937308                  1_GWF-(4,200,562)
        415          3        105       1.4796833                  1_GWF-(1,478,474)       13.026403                  1_GWF-(2,258,533)
        416          3        106      0.19646564                  1_GWF-(4,200,562)       12.660594                  1_GWF-(2,258,533)
        417          3        107     -0.20336636                  1_GWF-(4,204,560)       12.844819                  1_GWF-(2,258,533)
        418          3        108      -1.1545489                  1_GWF-(4,204,560)       25.629844                  1_GWF-(4,200,561)
        419          3        109      0.86431730                  1_GWF-(4,204,560)       13.012915                  1_GWF-(2,258,533)
        420          3        110      0.44067539                  1_GWF-(4,204,560)       12.784215                  1_GWF-(2,258,533)
        421          3        111      0.13251919                  1_GWF-(4,204,560)       12.793288                  1_GWF-(2,258,533)
        422          3        112      0.43846074                  1_GWF-(4,200,562)      -13.129035                  1_GWF-(4,199,561)
        423          3        113     -0.49721962                  1_GWF-(4,200,562)       12.713217                  1_GWF-(2,258,533)
        424          3        114 -7.52534149E-02                  1_GWF-(4,200,562)       12.493968                  1_GWF-(2,258,533)
        425          3        115      0.85797351                  1_GWF-(1,478,474)      -16.869245                   1_GWF-(1,79,120)
        426          3        116  8.15948391E-02                  1_GWF-(1,478,474)      -18.194377                   1_GWF-(1,79,120)
        427          3        117     -0.28197987                  1_GWF-(1,478,474)       15.584738                  1_GWF-(2,258,533)
        428          3        118     -0.21220292                  1_GWF-(1,478,474)       14.615982                  1_GWF-(2,259,533)
        429          3        119  3.33389337E-02                  1_GWF-(4,204,560)       14.491496                  1_GWF-(2,258,533)
        430          3        120       2.3271585                  1_GWF-(1,478,474)      -37.256710                   1_GWF-(1,79,120)
        431          3        121      -7.1253640                  1_GWF-(1,478,474)       38.075682                   1_GWF-(1,79,120)
        432          3        122 -4.67711337E-03                  1_GWF-(1,471,467)       37.471573                   1_GWF-(1,79,120)
        433          3        123     -0.16133428                  1_GWF-(1,478,474)       39.157112                   1_GWF-(1,79,120)
        434          3        124      0.51773195                  1_GWF-(1,478,474)       33.742304                   1_GWF-(1,79,120)
        435          3        125       4.4970349                  1_GWF-(1,478,474)      -15.462320                   1_GWF-(1,79,120)
        436          3        126      -1.8389754                  1_GWF-(1,478,474)       7.0965549                  1_GWF-(2,258,533)
        437          3        127      0.27324507                  1_GWF-(1,478,474)       8.2435138                  1_GWF-(2,258,533)
        438          3        128      0.57122006                  1_GWF-(1,478,474)       10.546596                  1_GWF-(2,259,533)
        439          3        129     -0.30843994                  1_GWF-(1,478,474)       9.3291297                  1_GWF-(2,258,533)
        440          3        130 -2.76496994E-02                  1_GWF-(1,478,474)       9.1515389                  1_GWF-(2,258,533)
        441          3        131      0.10206608                  1_GWF-(1,436,396)       9.0655680                  1_GWF-(2,259,533)
        442          3        132  1.56049662E-03                  1_GWF-(1,478,474)       8.4871792                  1_GWF-(2,258,533)
        443          3        133  3.43075362E-02                  1_GWF-(1,478,474)       8.8718686                  1_GWF-(2,258,533)
        444          3        134      0.20509881                  1_GWF-(1,478,474)       9.2993551                  1_GWF-(2,258,533)
        445          3        135      0.22287471                  1_GWF-(4,200,562)       9.2450195                  1_GWF-(2,258,533)
        446          3        136     -0.57814038                  1_GWF-(1,478,474)      -18.148887                  1_GWF-(4,200,561)
        447          3        137      0.32487709                  1_GWF-(4,200,561)       6.4851945                  1_GWF-(2,258,533)
        448          3        138     -0.15206084                  1_GWF-(4,200,562)       6.1392542                  1_GWF-(2,258,533)
        449          3        139  2.27491870E-02                  1_GWF-(1,478,474)       6.2455662                  1_GWF-(2,258,533)
        450          3        140  1.42227269E-02                  1_GWF-(4,200,562)       6.1693747                  1_GWF-(2,258,533)
        451          3        141      0.10123777                  1_GWF-(1,478,474)       6.4451591                  1_GWF-(2,258,533)
        452          3        142  9.00901542E-02                  1_GWF-(1,478,474)       6.6536760                  1_GWF-(2,258,533)
        453          3        143     -0.16874461                  1_GWF-(1,478,474)       6.2148826                  1_GWF-(2,258,533)
        454          3        144  9.10334159E-02                  1_GWF-(4,200,562)       6.2835800                  1_GWF-(2,258,533)
        455          3        145 -7.80903884E-03                  1_GWF-(4,200,562)       6.1841652                  1_GWF-(2,258,533)
        456          3        146  2.99684487E-03                  1_GWF-(4,200,562)       6.2171665                  1_GWF-(2,258,533)
        457          3        147 -3.65263056E-02                  1_GWF-(4,200,562)       6.2359939                  1_GWF-(2,258,533)
        458          3        148  3.41591840E-02                  1_GWF-(4,200,562)       6.4476142                  1_GWF-(2,258,533)
        459          3        149 -2.99842098E-02                  1_GWF-(1,436,396)       6.7590213                  1_GWF-(2,258,533)
        460          3        150      0.16923147                  1_GWF-(1,436,396)       4.9684456                  1_GWF-(2,258,533)
        461          3        151  2.39411230E-03                  1_GWF-(4,200,561)       4.8728738                  1_GWF-(2,258,533)
        462          3        152 -6.52837398E-03                  1_GWF-(1,436,396)       4.9766879                  1_GWF-(2,258,533)
        463          3        153  9.61460328E-03                  1_GWF-(1,478,474)       5.0277818                  1_GWF-(2,258,533)
        464          3        154 -1.59073694E-02                  1_GWF-(1,436,396)       5.0771311                  1_GWF-(2,258,533)
        465          3        155      0.32963955                  1_GWF-(1,436,396)      -1.8910904                  1_GWF-(1,464,479)
        466          3        156     -0.25073183                  1_GWF-(1,436,396)       4.0159112                  1_GWF-(2,259,533)
        467          3        157 -4.31734775E-02                  1_GWF-(4,200,561)       4.0449749                  1_GWF-(2,258,533)
        468          3        158  3.28061006E-02                  1_GWF-(4,200,562)       4.0164899                  1_GWF-(2,258,533)
        469          3        159  7.28824877E-03                  1_GWF-(4,200,561)       3.9588640                  1_GWF-(2,258,533)
        470          3        160  5.73121318E-03                  1_GWF-(1,478,474)       3.9194350                  1_GWF-(2,259,533)
        471          3        161 -2.12502845E-03                  1_GWF-(4,200,562)       3.9253065                  1_GWF-(2,258,533)
        472          3        162  2.11816760E-02                  1_GWF-(1,478,474)       3.8713490                  1_GWF-(2,259,533)
        473          3        163 -4.55196978E-02                  1_GWF-(4,204,560)       3.8265528                  1_GWF-(2,258,533)
        474          3        164  2.75074540E-02                  1_GWF-(4,201,561)       3.8340170                  1_GWF-(2,258,533)
        475          3        165  2.75707467E-02                  1_GWF-(4,204,560)       3.8578549                  1_GWF-(2,258,533)
        476          3        166 -3.26797282E-04                  1_GWF-(4,204,560)       3.8516055                  1_GWF-(2,258,533)
        477          3        167 -1.34950328E-03                  1_GWF-(4,205,560)       3.8487142                  1_GWF-(2,258,533)
        478          3        168 -2.61427285E-03                  1_GWF-(4,204,560)       3.8545264                  1_GWF-(2,258,533)
        479          3        169 -1.63770833E-03                  1_GWF-(1,478,474)       3.8667253                  1_GWF-(2,258,533)
        480          3        170 -1.79711628E-02                  1_GWF-(1,478,474)       4.0586493                  1_GWF-(2,258,533)
        481          3        171 -3.17795919E-02                  1_GWF-(1,478,474)       4.3620328                  1_GWF-(2,258,533)
        482          3        172 -6.76552738E-02                  1_GWF-(4,200,562)       4.2673425                  1_GWF-(2,258,533)
        483          3        173  3.14090844E-02                  1_GWF-(4,200,562)       4.2341218                  1_GWF-(2,258,533)
        484          3        174 -1.99629919E-02                  1_GWF-(1,478,474)       4.4447159                  1_GWF-(2,258,533)
        485          3        175       7.9415469                  1_GWF-(1,478,474)      -79.183371                  1_GWF-(2,258,533)
        486          4          1       7.8984845                  1_GWF-(1,479,473)      -5091.5543                  1_GWF-(2,247,532)
        487          4          2       8.7501703                  1_GWF-(4,473,530)       2303.6303                  1_GWF-(2,261,529)
        488          4          3       5.6644267                  1_GWF-(4,473,530)       1337.2155                  1_GWF-(2,260,530)
        489          4          4       4.0194734                  1_GWF-(4,473,530)       909.67584                  1_GWF-(2,259,530)
        490          4          5       2.0036841                  1_GWF-(4,499,435)       556.25554                  1_GWF-(2,258,531)
        491          4          6       2.7939848                  1_GWF-(4,499,436)      -448.19758                  1_GWF-(2,234,543)
        492          4          7       2.2740418                  1_GWF-(4,499,438)      -365.73122                  1_GWF-(2,234,543)
        493          4          8      -2.7050668                  1_GWF-(4,499,438)      -328.27315                  1_GWF-(2,268,531)
        494          4          9      -2.7445584                  1_GWF-(4,501,442)      -284.01619                  1_GWF-(2,268,531)
        495          4         10      -2.4026762                  1_GWF-(4,501,444)      -232.98055                  1_GWF-(2,268,531)
        496          4         11      -2.6335665                  1_GWF-(4,549,485)      -211.94286                  1_GWF-(2,236,538)
        497          4         12      -3.2116223                  1_GWF-(4,221,554)      -232.43463                  1_GWF-(2,237,537)
        498          4         13       2.4998724                  1_GWF-(4,223,553)      -219.71211                  1_GWF-(2,237,537)
        499          4         14       2.2714505                  1_GWF-(4,209,565)      -217.81576                  1_GWF-(2,237,537)
        500          4         15      -4.5893585                  1_GWF-(4,209,565)      -189.73276                  1_GWF-(2,237,537)
        501          4         16      -2.6452067                  1_GWF-(4,440,499)      -176.68162                  1_GWF-(2,239,537)
        502          4         17       3.9669182                  1_GWF-(4,209,564)      -167.70641                  1_GWF-(2,239,536)
        503          4         18      -2.4640573                  1_GWF-(4,209,565)      -153.31446                  1_GWF-(2,239,537)
        504          4         19       5.1274757                  1_GWF-(4,209,565)      -184.39559                  1_GWF-(2,239,536)
        505          4         20      -7.5098647                  1_GWF-(4,209,565)      -146.87657                  1_GWF-(2,239,536)
        506          4         21      -1.2084701                  1_GWF-(4,209,563)      -134.13858                  1_GWF-(2,239,537)
        507          4         22      -14.678608                  1_GWF-(4,208,562)       346.58161                  1_GWF-(4,207,560)
        508          4         23       12.466403                  1_GWF-(4,208,563)       97.505894                   1_GWF-(1,56,145)
        509          4         24      -2.5059245                  1_GWF-(4,203,560)       93.942411                   1_GWF-(1,56,145)
        510          4         25      -1.8000950                  1_GWF-(4,208,561)      -99.559573                  1_GWF-(4,208,561)
        511          4         26       1.1347300                  1_GWF-(4,207,561)      -94.512876                  1_GWF-(4,208,561)
        512          4         27       4.0112584                  1_GWF-(4,207,560)      -91.807392                  1_GWF-(2,256,535)
        513          4         28       1.2356724                  1_GWF-(4,203,560)      -88.903171                  1_GWF-(2,255,535)
        514          4         29      -2.9115262                  1_GWF-(4,207,561)       89.191607                  1_GWF-(4,207,559)
        515          4         30       1.6662617                  1_GWF-(4,185,565)      -80.969173                  1_GWF-(2,253,535)
        516          4         31       2.2544747                  1_GWF-(4,185,565)      -137.73631                  1_GWF-(4,207,559)
        517          4         32       1.8766708                  1_GWF-(4,186,565)      -79.254163                  1_GWF-(2,252,536)
        518          4         33      -1.5871972                  1_GWF-(1,481,470)      -89.222320                  1_GWF-(2,251,536)
        519          4         34      -2.4148151                  1_GWF-(4,184,566)       82.890126                  1_GWF-(1,464,479)
        520          4         35      -33.364753                  1_GWF-(4,200,561)      -1156.9001                  1_GWF-(4,200,561)
[...]
       1832         14         14 -1.25709872E-03                  1_GWF-(1,455,337)  7.21734963E-02                  1_GWF-(2,206,190)
       1833         14         15 -1.20883142E-03                  1_GWF-(1,456,337)  6.82803440E-02                  1_GWF-(2,206,190)
       1834         14         16 -1.21227013E-03                  1_GWF-(1,456,337)  6.42719512E-02                  1_GWF-(2,206,190)
       1835         14         17 -1.22275568E-03                  1_GWF-(1,456,338)  5.89710688E-02                  1_GWF-(1,212,205)
       1836         14         18 -1.14226091E-03                  1_GWF-(4,197,148)  6.49542194E-02                  1_GWF-(1,212,205)
       1837         14         19 -1.11627047E-03                  1_GWF-(4,197,148)  6.69814840E-02                  1_GWF-(1,212,205)
       1838         14         20 -1.07448373E-03                  1_GWF-(4,196,148) -7.13279810E-02                  1_GWF-(2,320,221)
       1839         14         21 -9.49243831E-04                  1_GWF-(4,196,147) -8.21730433E-02                  1_GWF-(2,320,221)
       1840         14         22 -8.54921220E-04                  1_GWF-(1,460,339) -9.04002499E-02                  1_GWF-(2,320,221)
       1841         14         23 -7.44012943E-04                  1_GWF-(1,461,339) -9.49598109E-02                  1_GWF-(2,320,221)
       1842         14         24 -6.81504004E-04                  1_GWF-(1,461,340) -9.62164865E-02                  1_GWF-(2,320,221)
       1843         14         25  1.14036856E-02                  1_GWF-(1,462,340)      0.11621032                  1_GWF-(1,212,205)
       1844         14         26 -1.13626897E-02                  1_GWF-(1,462,340) -8.71873802E-02                  1_GWF-(2,320,221)
       1845         14         27 -1.58098739E-03                  1_GWF-(1,462,340) -8.40500827E-02                  1_GWF-(2,320,221)
       1846         14         28  5.70760664E-04                  1_GWF-(1,462,341) -8.39981856E-02                  1_GWF-(1,320,221)
       1847         14         29 -2.02817266E-03                  1_GWF-(1,462,341) -7.86850218E-02                  1_GWF-(2,320,221)
       1848         14         30 -3.27284225E-04                  1_GWF-(1,456,350) -7.39279578E-02                  1_GWF-(1,320,221)
       1849         14         31  1.88245591E-05                  1_GWF-(1,197,146) -7.21557799E-02                  1_GWF-(2,320,221)
       1850         15          1 -1.26980471E-02                  1_GWF-(4,455,332)     -0.89725831                  1_GWF-(2,211,198)
       1851         15          2 -6.79962394E-03                  1_GWF-(1,455,332)     -0.37662695                  1_GWF-(1,505,481)
       1852         15          3 -4.68320551E-03                  1_GWF-(1,455,333)     -0.21350919                  1_GWF-(1,212,200)
       1853         15          4 -4.17092725E-03                  1_GWF-(1,455,333)      0.17016044                  1_GWF-(2,211,195)
       1854         15          5 -2.80241766E-03                  1_GWF-(1,455,333)      0.12129279                  1_GWF-(2,211,195)
       1855         15          6 -2.45850261E-03                  1_GWF-(1,456,333)  9.12727524E-02                  1_GWF-(2,209,195)
       1856         15          7 -2.08972960E-03                  1_GWF-(1,456,333)  7.24250785E-02                  1_GWF-(2,208,194)
       1857         15          8 -1.88713564E-03                  1_GWF-(1,456,333)  6.05444894E-02                  1_GWF-(2,208,194)
       1858         15          9 -1.69188478E-03                  1_GWF-(1,456,333)  5.00599586E-02                  1_GWF-(2,207,193)
       1859         15         10 -1.39535597E-03                  1_GWF-(1,456,333)  4.95012153E-02                  1_GWF-(1,212,201)
       1860         15         11 -1.25760975E-03                  1_GWF-(1,456,333)  5.11716040E-02                  1_GWF-(1,212,201)
       1861         15         12 -1.10223224E-03                  1_GWF-(1,456,333)  5.24314923E-02                  1_GWF-(1,212,201)
       1862         15         13 -1.13177537E-03                  1_GWF-(1,456,333)  5.17124681E-02                  1_GWF-(1,212,202)
       1863         15         14 -1.17309809E-03                  1_GWF-(1,455,336)  5.67274574E-02                  1_GWF-(1,212,203)
       1864         15         15 -1.29935964E-03                  1_GWF-(1,456,336)  5.85843630E-02                  1_GWF-(1,212,203)
       1865         15         16 -1.49944269E-03                  1_GWF-(1,456,337)  6.23751103E-02                  1_GWF-(1,212,203)
       1866         15         17 -1.76422612E-03                  1_GWF-(1,456,337)  6.47983153E-02                  1_GWF-(1,212,205)
       1867         15         18 -1.76146396E-03                  1_GWF-(1,456,337)  7.18497552E-02                  1_GWF-(1,212,205)
       1868         15         19 -2.13014622E-03                  1_GWF-(1,457,337)  7.31353607E-02                  1_GWF-(1,212,205)
       1869         15         20 -2.14542850E-03                  1_GWF-(1,458,337)  7.57827105E-02                  1_GWF-(1,212,205)
       1870         15         21 -2.06121668E-03                  1_GWF-(1,458,337)  7.47298084E-02                  1_GWF-(1,212,207)
       1871         15         22 -1.91346269E-03                  1_GWF-(1,459,338)  7.64860387E-02                  1_GWF-(1,320,221)
       1872         15         23 -1.61891883E-03                  1_GWF-(1,460,338)  8.33348744E-02                  1_GWF-(1,320,221)
       1873         15         24 -1.69807573E-03                  1_GWF-(1,461,339)  8.87978058E-02                  1_GWF-(1,320,221)
       1874         15         25 -1.76864579E-03                  1_GWF-(1,461,340)  9.27755624E-02                  1_GWF-(1,320,221)
       1875         15         26 -1.65935904E-03                  1_GWF-(1,462,340)  9.44058700E-02                  1_GWF-(1,320,221)
       1876         15         27 -1.59655851E-03                  1_GWF-(1,462,341)  9.27135732E-02                  1_GWF-(1,320,221)
       1877         15         28 -2.89879123E-03                  1_GWF-(1,462,341)  8.77616008E-02                  1_GWF-(1,320,221)
       1878         15         29 -4.23583201E-03                  1_GWF-(1,462,341)  8.72000470E-02                  1_GWF-(2,320,221)
       1879         15         30  6.59589673E-03                  1_GWF-(1,460,339)  4.91489023E-02                  1_GWF-(1,320,221)
       1880         15         31 -1.06065431E-03                  1_GWF-(1,451,351)  4.41674526E-02                  1_GWF-(1,320,221)
       1881         15         32 -1.45229466E-03                  1_GWF-(1,450,351)  3.61271170E-02                  1_GWF-(1,320,221)
       1882         15         33 -2.75327646E-03                  1_GWF-(1,451,352)  4.28334351E-02                  1_GWF-(1,212,212)
       1883         15         34  2.56928268E-03                  1_GWF-(1,451,352)  3.49133981E-02                  1_GWF-(1,212,212)
       1884         15         35 -9.17195758E-04                  1_GWF-(1,451,352)  3.71967144E-02                  1_GWF-(1,212,212)
       1885         15         36  2.99430387E-03                  1_GWF-(1,459,338)  3.00329750E-02                  1_GWF-(1,212,212)
       1886         15         37  1.11093742E-04                  1_GWF-(1,211,135)  3.03843702E-02                  1_GWF-(1,212,212)
       1887         15         38 -1.56135454E-04                  1_GWF-(1,453,358)  2.84008753E-02                  1_GWF-(1,212,212)
       1888         15         39 -4.85598206E-04                  1_GWF-(1,453,359)  2.33319384E-02                  1_GWF-(1,212,212)
       1889         15         40  1.46986879E-04                  1_GWF-(1,456,337)  2.40174983E-02                  1_GWF-(1,212,212)
       1890         15         41  5.69943858E-04                  1_GWF-(4,464,345)  3.03475721E-02                  1_GWF-(1,212,212)
       1891         15         42  5.34931268E-04                  1_GWF-(1,460,339)  2.67653934E-02                  1_GWF-(1,212,212)
       1892         15         43 -4.20804910E-05                  1_GWF-(1,461,339)  2.66869867E-02                  1_GWF-(1,212,212)
       1893         16          1 -8.77849548E-03                  1_GWF-(4,455,331)      -1.0225403                  1_GWF-(2,211,198)
       1894         16          2 -3.18982399E-03                  1_GWF-(4,455,331)     -0.38047431                  1_GWF-(2,211,200)
       1895         16          3 -1.55110273E-03                  1_GWF-(1,455,332)     -0.26589088                  1_GWF-(1,212,200)
       1896         16          4 -1.58946705E-03                  1_GWF-(1,455,333)     -0.17402426                  1_GWF-(1,212,200)
       1897         16          5 -1.24839814E-03                  1_GWF-(1,455,333)     -0.12427764                  1_GWF-(1,212,202)
       1898         16          6 -1.21770005E-03                  1_GWF-(1,455,333)     -0.10764569                  1_GWF-(1,212,202)
       1899         16          7 -1.00554655E-03                  1_GWF-(1,455,333) -7.56620720E-02                  1_GWF-(1,212,202)
       1900         16          8 -8.97977922E-04                  1_GWF-(1,456,333) -6.08265262E-02                  1_GWF-(1,212,204)
       1901         16          9 -7.44933808E-04                  1_GWF-(1,456,333) -4.87457191E-02                  1_GWF-(1,212,204)
       1902         16         10 -5.96075885E-04                  1_GWF-(1,456,333) -3.78409637E-02                  1_GWF-(1,212,204)
       1903         16         11 -4.79023603E-04                  1_GWF-(1,456,333) -3.21150306E-02                  1_GWF-(1,212,206)
       1904         16         12 -4.74168127E-04                  1_GWF-(1,208,130) -2.86740315E-02                  1_GWF-(1,212,206)
       1905         16         13 -4.55697877E-04                  1_GWF-(1,208,130) -2.17385774E-02                  1_GWF-(1,212,206)
       1906         16         14 -4.25866481E-04                  1_GWF-(1,208,130) -2.00945391E-02                  1_GWF-(1,212,208)
       1907         16         15 -3.91427438E-04                  1_GWF-(1,208,130) -1.62197420E-02                  1_GWF-(1,212,208)
       1908         16         16 -3.70969454E-04                  1_GWF-(1,208,130)  1.22977774E-02                  1_GWF-(2,204,196)
       1909         16         17 -3.43099085E-04                  1_GWF-(1,208,130)  1.10525235E-02                  1_GWF-(1,212,203)
       1910         16         18 -3.05395132E-04                  1_GWF-(1,206,130)  1.23713399E-02                  1_GWF-(1,212,205)
       1911         16         19 -3.43108455E-04                  1_GWF-(1,206,130)  1.54503247E-02                  1_GWF-(1,212,205)
       1912         16         20 -3.24212797E-04                  1_GWF-(1,206,130)  1.85886215E-02                  1_GWF-(1,212,205)
       1913         16         21 -2.94876375E-04                  1_GWF-(1,206,130)  2.11273199E-02                  1_GWF-(1,212,207)
       1914         16         22 -2.47728418E-04                  1_GWF-(1,205,130)  2.41823798E-02                  1_GWF-(1,212,207)
       1915         16         23 -2.65787159E-04                  1_GWF-(1,205,129)  2.65835832E-02                  1_GWF-(1,212,207)
       1916         16         24 -2.60478901E-04                  1_GWF-(1,204,129)  2.80458002E-02                  1_GWF-(1,212,207)
       1917         16         25 -3.19865147E-04                  1_GWF-(4,204,129)  2.99854299E-02                  1_GWF-(1,212,208)
       1918         16         26 -2.59975713E-04                  1_GWF-(1,434,348)  3.05925133E-02                  1_GWF-(1,212,208)
       1919         16         27 -5.02057051E-04                  1_GWF-(1,434,348)  3.22083533E-02                  1_GWF-(1,203,182)
       1920         16         28 -6.34669966E-05                  1_GWF-(1,452,361)  3.17307892E-02                  1_GWF-(2,203,182)
       1921         17          1 -3.25504028E-03                  1_GWF-(4,455,331)     -0.30082396                  1_GWF-(1,505,481)
       1922         17          2 -1.29079368E-03                  1_GWF-(4,455,331)     -0.13868142                  1_GWF-(1,505,481)
       1923         17          3 -6.29783574E-04                  1_GWF-(1,455,332) -5.92899200E-02                  1_GWF-(1,505,481)
       1924         17          4 -6.15745449E-04                  1_GWF-(1,455,333)  3.60844770E-02                  1_GWF-(2,211,195)
       1925         17          5 -5.53345291E-04                  1_GWF-(1,455,333)  2.55135241E-02                  1_GWF-(1,324,220)
       1926         17          6 -5.48181895E-04                  1_GWF-(1,455,333)  1.87162237E-02                  1_GWF-(1,324,220)
       1927         17          7 -4.93568484E-04                  1_GWF-(1,455,333)  1.72113833E-02                  1_GWF-(1,212,208)
       1928         17          8 -4.76757247E-04                  1_GWF-(1,455,333)  1.58875008E-02                  1_GWF-(1,212,209)
       1929         17          9 -4.25693442E-04                  1_GWF-(1,455,333)  1.46122793E-02                  1_GWF-(1,212,209)
       1930         17         10 -3.66925825E-04                  1_GWF-(1,455,333)  1.33598573E-02                  1_GWF-(1,212,201)
       1931         17         11 -3.33590685E-04                  1_GWF-(1,456,333)  1.45963228E-02                  1_GWF-(1,212,202)
       1932         17         12 -3.02652413E-04                  1_GWF-(1,456,333)  1.55157472E-02                  1_GWF-(1,212,202)
       1933         17         13 -3.13213097E-04                  1_GWF-(1,456,333)  1.57854118E-02                  1_GWF-(1,212,202)
       1934         17         14 -3.09489533E-04                  1_GWF-(1,455,335)  1.55835301E-02                  1_GWF-(1,212,203)
       1935         17         15 -3.45664097E-04                  1_GWF-(1,455,336)  1.45653074E-02                  1_GWF-(1,212,203)
       1936         17         16 -4.06488752E-04                  1_GWF-(1,455,336)  1.29444315E-02                  1_GWF-(1,212,203)
       1937         17         17 -4.53250740E-04                  1_GWF-(1,455,336)  1.02891972E-02                  1_GWF-(1,212,203)
       1938         17         18 -4.93688430E-04                  1_GWF-(1,456,337)  9.85677165E-03                  1_GWF-(1,201,197)
       1939         17         19 -5.97463170E-04                  1_GWF-(1,456,337)  1.10446804E-02                  1_GWF-(1,201,197)
       1940         17         20 -6.15656939E-04                  1_GWF-(1,456,338) -1.32368451E-02                  1_GWF-(1,212,212)
       1941         17         21 -5.47809233E-04                  1_GWF-(1,458,338) -1.41042875E-02                  1_GWF-(1,212,212)
       1942         17         22 -5.13598831E-04                  1_GWF-(1,459,338) -1.44412651E-02                  1_GWF-(2,322,217)
       1943         17         23 -5.60457216E-04                  1_GWF-(1,459,338) -1.54409436E-02                  1_GWF-(2,322,217)
       1944         17         24 -4.17887885E-04                  1_GWF-(1,460,339) -1.63942557E-02                  1_GWF-(2,322,217)
       1945         17         25 -7.25429722E-04                  1_GWF-(1,460,339) -1.74887335E-02                  1_GWF-(1,212,205)
       1946         17         26  3.42316418E-05                  1_GWF-(4,461,340) -1.70136562E-02                  1_GWF-(1,212,204)
       1947         18          1 -3.38854330E-03                  1_GWF-(4,455,331)     -0.30015930                  1_GWF-(1,212,212)
       1948         18          2 -1.10019106E-03                  1_GWF-(4,455,331)     -0.11272160                  1_GWF-(1,211,212)
       1949         18          3 -6.13340090E-04                  1_GWF-(4,455,331) -7.76984975E-02                  1_GWF-(1,212,212)
       1950         18          4 -4.56649492E-04                  1_GWF-(1,455,333) -4.83121726E-02                  1_GWF-(1,211,213)
       1951         18          5 -3.89633492E-04                  1_GWF-(1,455,333) -2.72369848E-02                  1_GWF-(1,211,213)
       1952         18          6 -2.56926563E-04                  1_GWF-(1,455,333) -1.66025359E-02                  1_GWF-(1,212,214)
       1953         18          7 -1.75774636E-04                  1_GWF-(1,455,333)  1.29067494E-02                  1_GWF-(1,212,205)
       1954         18          8  1.08396943E-04                  1_GWF-(1,457,336)  1.05205755E-02                  1_GWF-(1,212,205)
       1955         18          9 -9.39613780E-05                  1_GWF-(4,451,331)  9.08520336E-03                  1_GWF-(2,203,182)
       1956         19          1 -6.68005275E-04                  1_GWF-(4,455,331)     -0.10054849                  1_GWF-(1,212,212)
       1957         19          2 -2.19158167E-04                  1_GWF-(1,455,338) -3.89659044E-02                  1_GWF-(1,212,212)
       1958         19          3 -1.25991912E-04                  1_GWF-(1,455,333) -2.57317062E-02                  1_GWF-(1,211,213)
       1959         19          4 -1.41816416E-04                  1_GWF-(1,455,333) -1.65622395E-02                  1_GWF-(1,211,213)
       1960         19          5 -1.45785225E-04                  1_GWF-(1,455,333) -9.26953723E-03                  1_GWF-(1,212,214)
       1961         19          6 -1.34753905E-04                  1_GWF-(1,455,333)  7.84147989E-03                  1_GWF-(2,203,181)
       1962         19          7 -1.34776582E-04                  1_GWF-(1,455,333)  7.59605491E-03                  1_GWF-(1,211,212)
       1963         19          8 -1.08386314E-04                  1_GWF-(1,455,333)  1.07968291E-02                  1_GWF-(1,212,213)
       1964         19          9 -1.01540201E-04                  1_GWF-(4,451,332)  1.33823432E-02                  1_GWF-(1,212,213)
       1965         19         10 -8.97158166E-05                  1_GWF-(4,450,332)  1.42670349E-02                  1_GWF-(1,212,213)
       1966         20          1 -3.59000591E-04                  1_GWF-(4,455,331)  2.01165259E-02                  1_GWF-(2,206,185)
       1967         20          2 -1.11597305E-04                  1_GWF-(1,455,334)  9.32392428E-03                  1_GWF-(2,209,186)
       1968         20          3 -6.19185460E-05                  1_GWF-(1,455,334)  5.81378241E-03                  1_GWF-(2,258,533)
       1969         21          1 -9.30413322E-05                  1_GWF-(4,204,221)  6.41401997E-03                  1_GWF-(2,209,186)
 --------------------------------------------------------------------------------------------------------------------------------------



 MEMORY MANAGER TOTAL STORAGE BY DATA TYPE, IN MEGABYTES
 -------------------------------
                    ALLOCATED   
 DATA TYPE           MEMORY     
 -------------------------------
 Character        0.49654900    
 Logical          4.40000000E-05
 Integer          104.56188     
 Real             182.36282     
 -------------------------------
 Total            287.42130     
 -------------------------------


 
 Run end date and time (yyyy/mm/dd hh:mm:ss): 2021/05/14  9:58:33
 Elapsed run time: 27.344 Seconds

WARNING REPORT:

  1. NONLINEAR BLOCK VARIABLE 'OUTER_HCLOSE' IN FILE 'mfsim.ims' WAS
     DEPRECATED IN VERSION 6.1.1. SETTING OUTER_DVCLOSE TO OUTER_HCLOSE VALUE.
  2. NONLINEAR BLOCK VARIABLE 'OUTER_RCLOSEBND' IN FILE 'mfsim.ims' WAS
     DEPRECATED IN VERSION 6.1.1. OUTER_DVCLOSE IS USED TO EVALUATE PACKAGE
     CONVERGENCE.
  3. LINEAR BLOCK VARIABLE 'INNER_HCLOSE' IN FILE 'mfsim.ims' WAS DEPRECATED
     IN VERSION 6.1.1. SETTING INNER_DVCLOSE TO INNER_HCLOSE VALUE.
 Normal termination of simulation.
