                                   MODFLOW 6
                U.S. GEOLOGICAL SURVEY MODULAR HYDROLOGIC MODEL
                            VERSION 6.2.0 10/22/2020

   MODFLOW 6 compiled Oct 25 2020 16:15:39 with IFORT compiler (ver. 19.0.5)

This software has been approved for release by the U.S. Geological 
Survey (USGS). Although the software has been subjected to rigorous 
review, the USGS reserves the right to update the software as needed 
pursuant to further analysis and review. No warranty, expressed or 
implied, is made by the USGS or the U.S. Government as to the 
functionality of the software and related material nor shall the 
fact of release constitute any such warranty. Furthermore, the 
software is released on condition that neither the USGS nor the U.S. 
Government shall be held liable for any damages resulting from its 
authorized or unauthorized use. Also refer to the USGS Water 
Resources Software User Rights Notice for complete use, copyright, 
and distribution information.


System command used to initiate simulation:
mf6

MODFLOW was compiled using uniform precision.

Real Variables
  KIND: 8
  TINY (smallest non-zero value):    2.225074-308
  HUGE (largest value):    1.797693+308
  PRECISION: 15
  BIT SIZE: 64

Integer Variables
  KIND: 4
  HUGE (largest value): 2147483647
  BIT SIZE: 32

Long Integer Variables
  KIND: 8
  HUGE (largest value): 9223372036854775807
  BIT SIZE: 64

Logical Variables
  KIND: 4
  BIT SIZE: 32
 

 OPENED mfsim.nam
 FILE TYPE:NAM   UNIT 1001   STATUS:OLD                 
 FORMAT:FORMATTED              ACCESS:SEQUENTIAL          
 ACTION:READ                

 # neversink model version 0.post7.dev0+g3db0af8
 # File generated by Flopy version 3.3.3 on 03/08/2021 at 18:52:10.
 # via modflow-setup version 0.post229+gbea8073 at 2021-03-08 18:52:10

 READING SIMULATION OPTIONS
 END OF SIMULATION OPTIONS

 READING SIMULATION TIMING

 OPENED mfsim.tdis
 FILE TYPE:TDIS   UNIT 1002   STATUS:OLD                 
 FORMAT:FORMATTED              ACCESS:SEQUENTIAL          
 ACTION:READ                


 TDIS -- TEMPORAL DISCRETIZATION PACKAGE,
 VERSION 1 : 11/13/2014 - INPUT READ FROM UNIT 1002
 # neversink model version 0.post7.dev0+g3db0af8
 # File generated by Flopy version 3.3.3 on 03/08/2021 at 18:52:10.
 # via modflow-setup version 0.post229+gbea8073 at 2021-03-08 18:52:10
 PROCESSING TDIS OPTIONS
    SIMULATION TIME UNIT IS DAYS
    SIMULATION STARTING DATE AND TIME IS 2011-01-01                    
 END OF TDIS OPTIONS
 PROCESSING TDIS DIMENSIONS
    1 STRESS PERIOD(S) IN SIMULATION
 END OF TDIS DIMENSIONS
 # perlen nstp tsmult
 PROCESSING TDIS PERIODDATA


 STRESS PERIOD     LENGTH       TIME STEPS     MULTIPLIER FOR DELT
 ----------------------------------------------------------------------------
        1         1.000000          1                    1.000
 END OF TDIS PERIODDATA
 END OF SIMULATION TIMING

 READING SIMULATION MODELS
    GWF6 model NEVERSINK will be created as model 1
 END OF SIMULATION MODELS

 READING SIMULATION EXCHANGES
 END OF SIMULATION EXCHANGES

 READING SOLUTIONGROUP

 Creating solution: SLN_1           

 OPENED mfsim.ims
 FILE TYPE:IMS   UNIT 1014   STATUS:OLD                 
 FORMAT:FORMATTED              ACCESS:SEQUENTIAL          
 ACTION:READ                

 END OF SIMULATION SOLUTIONGROUP

 IMS -- ITERATIVE MODEL SOLUTION PACKAGE, VERSION 6, 4/28/2017
         INPUT READ FROM UNIT 1014
 # File generated by Flopy version 3.3.3 on 01/25/2021 at 16:35:28.

 PROCESSING IMS OPTIONS
 COMPLEX OPTION:
 DEFAULT SOLVER INPUT VALUES REFLECT STRONGLY NONLINEAR MODEL
 END OF IMS OPTIONS

 PROCESSING IMS NONLINEAR
 END OF IMS NONLINEAR DATA
 **UNDER-RELAXATION WILL BE USED***
 
 ***IMS LINEAR SOLVER WILL BE USED***

 IMSLINEAR -- UNSTRUCTURED LINEAR SOLUTION PACKAGE, VERSION 8, 04/28/2017

 PROCESSING LINEAR DATA
 END OF LINEAR DATA
 
 OUTER ITERATION CONVERGENCE CRITERION    (DVCLOSE) =    0.100000E-01
 MAXIMUM NUMBER OF OUTER ITERATIONS        (MXITER) = 200
 SOLVER PRINTOUT INDEX                     (IPRIMS) = 2
 NONLINEAR ITERATION METHOD            (NONLINMETH) = 3
 LINEAR SOLUTION METHOD                   (LINMETH) = 1
 UNDER-RELAXATION WEIGHT REDUCTION FACTOR   (THETA) =    0.700000E+00
 UNDER-RELAXATION WEIGHT INCREASE INCREMENT (KAPPA) =    0.100000E+00
 UNDER-RELAXATION PREVIOUS HISTORY FACTOR   (GAMMA) =    0.000000E+00
 UNDER-RELAXATION MOMENTUM TERM         (AMOMENTUM) =    0.000000E+00

       SOLUTION BY THE BICONJUGATE-GRADIENT STABILIZED METHOD
 ------------------------------------------------------------------
 MAXIMUM OF 200 CALLS OF SOLUTION ROUTINE
 MAXIMUM OF 175 INTERNAL ITERATIONS PER CALL TO SOLUTION ROUTINE
 LINEAR ACCELERATION METHOD            = BCGS      
 MATRIX PRECONDITIONING TYPE           = INCOMPLETE LUT      
 MATRIX SCALING APPROACH               = NO SCALING          
 MATRIX REORDERING APPROACH            = ORIGINAL ORDERING        
 NUMBER OF ORTHOGONALIZATIONS          = 0
 HEAD CHANGE CRITERION FOR CLOSURE     =    0.10000E-03
 RESIDUAL CHANGE CRITERION FOR CLOSURE =    0.10000E+04
 RESIDUAL CONVERGENCE OPTION           = 1
 RESIDUAL CONVERGENCE NORM             = INFINITY NORM S 
 RELAXATION FACTOR                     =    0.00000E+00
 NUMBER OF LEVELS                      =               
 DROP TOLERANCE                        =    0.10000E-02


1
                            STRESS PERIOD NO.    1, LENGTH =   1.000000    
                            -----------------------------------------------

                              NUMBER OF TIME STEPS =     1

                               MULTIPLIER FOR DELT =     1.000

                            INITIAL TIME STEP SIZE =   1.000000    



 PSEUDO-TRANSIENT CONTINUATION WILL BE APPLIED TO MODEL 1 ("NEVERSINK") DURING THIS TIME STEP

 OUTER ITERATION SUMMARY
 ----------------------------------------------------------------------------------------------------------
                                OUTER      INNER                    STEP   MAXIMUM CHANGE MODEL-(CELLID) OR
 OUTER ITERATION STEP       ITERATION  ITERATION  MAXIMUM CHANGE SUCCESS             MODEL-PACKAGE-(NUMBER)
 ----------------------------------------------------------------------------------------------------------
 Model                              1        164      -112.82368                          1_GWF-(4,331,548)
 Model                              2        175       425.35961                          1_GWF-(1,264,221)
 Model                              3        175       511.42492                          1_GWF-(1,306,196)
 Model                              4        121      -339.93963                          1_GWF-(1,306,196)
 Model                              5        174      -333.10166                          1_GWF-(1,302,206)
 Model                              6        145      -77.701439                          1_GWF-(1,306,196)
 Model                              7        155      -27.881870                          1_GWF-(1,306,196)
 Model                              8        175       217.60187                          1_GWF-(1,304,197)
 Model                              9         82      -123.92172                          1_GWF-(1,304,197)
 Model                             10        123      -75.891784                          1_GWF-(1,304,197)
 Model                             11        105      -37.004381                          1_GWF-(1,304,197)
 Model                             12         87      -12.724343                          1_GWF-(1,261,174)
 Model                             13        112       27.364054                          1_GWF-(1,430,438)
 Model                             14         84      -16.788904                          1_GWF-(1,430,438)
 Model                             15         81       183.79912                          1_GWF-(1,302,197)
 Model                             16         91      -126.06688                          1_GWF-(1,302,197)
 Model                             17        100      -66.690610                          1_GWF-(1,303,198)
 Model                             18         86       184.78641                          1_GWF-(1,300,199)
 Model                             19         80      -17.863428                          1_GWF-(1,299,199)
 Model                             20         74       10.928524                          1_GWF-(1,301,198)
 Model                             21         71      -8.7369666                          1_GWF-(1,304,199)
 Model                             22         54       7.6370341                          1_GWF-(1,298,206)
 Model                             23        109       144.39159                          1_GWF-(1,301,198)
 Model                             24         93      -92.155204                          1_GWF-(1,301,198)
 Model                             25        133      -51.919652                          1_GWF-(1,301,198)
 Model                             26         96       50.719025                          1_GWF-(1,297,203)
 Model                             27         89      -11.264806                          1_GWF-(1,299,202)
 Model                             28         77       29.639014                          1_GWF-(1,299,202)
 Model                             29         36       109.64774                          1_GWF-(1,300,201)
 Model                             30         51      -22.479567                          1_GWF-(1,300,201)
 Model                             31         75       21.871745                          1_GWF-(1,302,200)
 Model                             32         56      -6.1360977                          1_GWF-(1,300,201)
 Model                             33         37       5.0799143                          1_GWF-(1,302,196)
 Model                             34         34       9.3200152                          1_GWF-(1,299,202)
 Model                             35         45       4.3117158                          1_GWF-(1,298,200)
 Model                             36         25       6.4874477                          1_GWF-(1,299,199)
 Model                             37         40       3.8825445                          1_GWF-(1,299,199)
 Model                             38         31      0.84348737                          1_GWF-(1,301,201)
 Model                             39         31       3.4261456                          1_GWF-(1,301,201)
 Model                             40         27      0.40626626                          1_GWF-(1,301,201)
 Model                             41         29       3.9642036                          1_GWF-(1,300,202)
 Model                             42         31     -0.98152538                          1_GWF-(1,300,202)
 Model                             43         26     -0.45778090                          1_GWF-(1,300,202)
 Model                             44         21     -0.13860704                          1_GWF-(1,300,202)
 Model                             45         19 -6.52002312E-02                          1_GWF-(1,300,203)
 Model                             46         24  4.70608508E-03                          1_GWF-(1,298,202)
 Model                             47         13 -2.81618235E-03                          1_GWF-(1,305,195)
 Model                             48         21 -1.94396764E-03                          1_GWF-(4,310,191)
 Model                             49          3 -6.71579898E-04                          1_GWF-(4,310,191)
 Model                             50          3 -3.00263832E-04                          1_GWF-(4,310,191)
 Model                             51          2 -1.12168007E-04                          1_GWF-(4,310,189)
 Model                             52          1 -5.69547979E-05       *                  1_GWF-(4,306,194)
 Package                           52             1.00948183E-03       *         1_GWF-SFR_0-(12220)-inflow
 ----------------------------------------------------------------------------------------------------------


 52 CALLS TO NUMERICAL SOLUTION IN TIME STEP 1 STRESS PERIOD 1
 3792 TOTAL ITERATIONS

 INNER ITERATION SUMMARY
 --------------------------------------------------------------------------------------------------------------------------------------
      TOTAL      OUTER      INNER                                                            MAXIMUM                                   
  ITERATION  ITERATION  ITERATION  MAXIMUM CHANGE      MAXIMUM CHANGE MODEL-(CELLID)        RESIDUAL    MAXIMUM RESIDUAL MODEL-(CELLID)
 --------------------------------------------------------------------------------------------------------------------------------------
          1          1          1      -36.013562                    1_GWF-(4,88,82)       38579.340                   1_GWF-(1,107,89)
          2          1          2      -15.423639                  1_GWF-(1,425,241)       17272.545                   1_GWF-(1,107,89)
          3          1          3      -10.217375                  1_GWF-(4,331,548)       8735.3975                   1_GWF-(1,107,87)
          4          1          4      -9.9561842                  1_GWF-(4,331,548)       5755.1837                   1_GWF-(1,107,87)
          5          1          5      -8.8503526                  1_GWF-(4,331,548)       3747.2568                   1_GWF-(1,108,86)
          6          1          6      -8.4626025                  1_GWF-(4,331,548)       3476.8911                   1_GWF-(1,108,86)
          7          1          7      -7.8414257                  1_GWF-(4,330,547)       2589.0814                   1_GWF-(1,108,86)
          8          1          8      -7.4202214                  1_GWF-(4,329,547)       2121.2257                   1_GWF-(1,108,86)
          9          1          9      -7.4794281                  1_GWF-(4,296,553)       1515.5211                    1_GWF-(1,94,86)
         10          1         10      -7.6724176                  1_GWF-(4,296,552)       1382.4856                    1_GWF-(1,94,86)
         11          1         11      -7.2669927                  1_GWF-(4,297,552)       1277.1869                    1_GWF-(1,95,87)
         12          1         12      -7.1020515                  1_GWF-(4,297,552)       1194.7197                    1_GWF-(1,95,87)
         13          1         13      -6.3036954                  1_GWF-(4,297,551)       1154.4461                    1_GWF-(1,96,88)
         14          1         14      -5.7628405                  1_GWF-(4,296,549)       1088.2948                    1_GWF-(1,96,88)
         15          1         15      -5.6342543                  1_GWF-(4,296,549)       1027.2371                    1_GWF-(1,97,89)
         16          1         16      -5.5815638                  1_GWF-(4,296,549)       925.11826                    1_GWF-(1,97,89)
         17          1         17      -5.2171681                  1_GWF-(4,295,549)       813.09963                    1_GWF-(1,98,90)
         18          1         18      -4.7897160                  1_GWF-(4,295,549)       730.95121                    1_GWF-(1,99,91)
         19          1         19      -4.3906205                  1_GWF-(4,295,549)       703.55699                    1_GWF-(1,97,93)
         20          1         20      -3.7305894                  1_GWF-(4,295,549)       737.35594                    1_GWF-(1,98,94)
         21          1         21      -3.4327183                  1_GWF-(4,295,549)       715.32511                    1_GWF-(1,98,94)
         22          1         22      -3.1415928                  1_GWF-(4,323,551)       691.93935                    1_GWF-(1,99,95)
         23          1         23      -3.2887143                  1_GWF-(4,323,548)       640.71791                    1_GWF-(1,99,95)
         24          1         24      -2.9989232                  1_GWF-(4,325,547)       597.15455                   1_GWF-(1,102,94)
         25          1         25      -2.7489735                  1_GWF-(4,325,547)       554.71807                   1_GWF-(1,103,95)
         26          1         26      -2.6558846                  1_GWF-(3,429,495)       537.12227                   1_GWF-(1,103,95)
         27          1         27      -2.5617210                  1_GWF-(3,429,495)       475.32619                   1_GWF-(1,103,95)
         28          1         28      -2.4671063                  1_GWF-(3,429,495)       448.44542                   1_GWF-(1,105,97)
         29          1         29      -2.3903625                  1_GWF-(4,424,505)       425.24561                  1_GWF-(2,445,479)
         30          1         30      -2.4261584                  1_GWF-(4,425,506)       450.37128                  1_GWF-(2,445,479)
         31          1         31      -2.2546102                  1_GWF-(4,426,506)       466.94379                  1_GWF-(2,445,479)
         32          1         32      -2.1356148                  1_GWF-(4,429,505)       473.12972                  1_GWF-(2,445,479)
         33          1         33       1.9289632                  1_GWF-(4,298,551)       470.01665                  1_GWF-(2,445,479)
         34          1         34       2.0379696                  1_GWF-(4,297,551)       456.91069                  1_GWF-(2,445,479)
         35          1         35       1.9454531                  1_GWF-(4,297,550)       435.84725                  1_GWF-(2,445,479)
         36          1         36       1.9802121                  1_GWF-(4,296,548)       411.97774                  1_GWF-(2,288,531)
         37          1         37       1.8222015                  1_GWF-(4,294,544)       384.94467                  1_GWF-(2,288,531)
         38          1         38       3.6295922                  1_GWF-(4,293,544)       323.32230                  1_GWF-(1,288,531)
         39          1         39       4.3010297                  1_GWF-(4,326,550)       192.95424                  1_GWF-(1,288,531)
         40          1         40     -0.38223861                  1_GWF-(4,294,547)       191.61243                  1_GWF-(2,445,479)
         41          1         41       1.3246969                  1_GWF-(4,294,546)       165.64772                  1_GWF-(2,445,479)
         42          1         42       1.1765117                  1_GWF-(4,324,548)       159.15437                  1_GWF-(1,394,501)
         43          1         43       1.8034497                  1_GWF-(4,324,548)       183.00861                  1_GWF-(1,394,501)
         44          1         44  8.00251420E-02                  1_GWF-(4,370,535)       182.15963                  1_GWF-(2,394,501)
         45          1         45      0.42338490                  1_GWF-(4,324,547)       183.56695                  1_GWF-(1,394,501)
         46          1         46       3.4671975                  1_GWF-(4,324,545)       130.90248                  1_GWF-(1,394,501)
         47          1         47  1.94360562E-02                  1_GWF-(4,368,529)       120.80202                  1_GWF-(1,394,501)
         48          1         48      0.49418779                   1_GWF-(1,132,70)       114.01918                  1_GWF-(1,394,501)
         49          1         49      0.65750122                  1_GWF-(4,325,546)       104.09303                  1_GWF-(1,394,501)
         50          1         50       1.0121585                   1_GWF-(1,135,72)       75.034978                  1_GWF-(1,394,501)
         51          1         51     -0.20245472                  1_GWF-(2,433,482)       72.288384                  1_GWF-(1,394,501)
         52          1         52      0.47983758                  1_GWF-(2,433,482)       79.979431                  1_GWF-(1,394,501)
         53          1         53  6.93266376E-02                  1_GWF-(4,361,537)       78.685041                  1_GWF-(1,394,501)
         54          1         54      -1.2631211                  1_GWF-(2,432,482)       62.829551                  1_GWF-(1,391,502)
         55          1         55      0.15269861                  1_GWF-(2,433,481)       62.357110                  1_GWF-(1,391,502)
         56          1         56     -0.12770583                  1_GWF-(2,432,481)       61.666342                  1_GWF-(1,391,502)
         57          1         57      0.36640739                   1_GWF-(1,134,70)       60.010681                  1_GWF-(1,438,493)
         58          1         58      0.73969722                   1_GWF-(1,134,71)       59.300983                  1_GWF-(1,438,493)
         59          1         59      0.34714195                  1_GWF-(2,432,481)       58.882306                  1_GWF-(1,438,493)
         60          1         60      0.19494806                   1_GWF-(1,134,71)       58.754734                  1_GWF-(1,438,493)
         61          1         61       1.7687756                   1_GWF-(1,134,70)       48.558607                  1_GWF-(1,440,493)
         62          1         62  3.94952430E-02                  1_GWF-(1,424,498)       48.631604                  1_GWF-(1,440,493)
         63          1         63     -0.39810851                  1_GWF-(3,427,495)       43.975435                  1_GWF-(1,438,493)
         64          1         64     -0.16218012                  1_GWF-(3,427,495)       43.123381                  1_GWF-(1,438,493)
         65          1         65  4.97631622E-02                  1_GWF-(3,427,495)       43.538684                  1_GWF-(1,438,493)
         66          1         66 -7.86318981E-02                  1_GWF-(3,427,495)       42.964493                  1_GWF-(1,438,493)
         67          1         67     -0.38492627                  1_GWF-(3,427,495)       40.135987                  1_GWF-(1,438,493)
         68          1         68     -0.12007075                  1_GWF-(3,427,495)       39.121715                  1_GWF-(1,438,493)
         69          1         69     -0.25102165                  1_GWF-(3,428,495)       37.213409                  1_GWF-(1,439,493)
         70          1         70     -0.56097532                  1_GWF-(1,440,490)       34.381179                  1_GWF-(1,444,493)
         71          1         71  3.53830068E-02                  1_GWF-(3,427,495)       34.693971                  1_GWF-(1,444,493)
         72          1         72     -0.39529592                  1_GWF-(3,427,495)       30.961484                  1_GWF-(1,437,493)
         73          1         73 -5.41161391E-02                  1_GWF-(3,427,495)       30.613083                  1_GWF-(1,437,493)
         74          1         74      0.48711365                  1_GWF-(3,429,495)       34.322591                  1_GWF-(1,439,493)
         75          1         75     -0.77456541                  1_GWF-(3,428,495)       27.910143                  1_GWF-(1,439,493)
         76          1         76     -0.16825331                  1_GWF-(3,439,494)       26.439252                  1_GWF-(1,438,493)
         77          1         77     -0.10248991                  1_GWF-(2,431,494)       25.696892                  1_GWF-(1,439,493)
         78          1         78     -0.23669896                  1_GWF-(3,434,494)       23.394545                  1_GWF-(1,439,493)
         79          1         79     -0.45840230                  1_GWF-(3,434,494)       20.834103                  1_GWF-(1,439,493)
         80          1         80       5.3758160                  1_GWF-(3,434,494)       59.941550                  1_GWF-(1,439,493)
         81          1         81      -3.2218816                  1_GWF-(3,434,494)       35.971390                  1_GWF-(1,439,493)
         82          1         82      -3.8578059                  1_GWF-(3,434,494)       12.670491                  1_GWF-(1,460,496)
         83          1         83       1.1351980                  1_GWF-(1,417,498)       17.945248                  1_GWF-(1,440,493)
         84          1         84     -0.14586708                  1_GWF-(4,437,490)       13.914340                  1_GWF-(1,445,493)
         85          1         85  5.89072706E-02                  1_GWF-(1,259,516)       11.972284                  1_GWF-(1,444,493)
         86          1         86  3.39081908E-02                  1_GWF-(3,429,495)       12.277150                  1_GWF-(1,444,493)
         87          1         87     -0.19025531                  1_GWF-(3,429,495)       11.254664                  1_GWF-(1,433,493)
         88          1         88 -4.52013602E-02                  1_GWF-(3,438,492)       11.052677                  1_GWF-(1,433,493)
         89          1         89     -0.11374758                  1_GWF-(2,436,494)       10.287222                  1_GWF-(1,439,493)
         90          1         90 -6.75556734E-02                  1_GWF-(3,434,494)       9.9503592                  1_GWF-(1,438,493)
         91          1         91 -9.42383234E-02                  1_GWF-(3,436,494)       9.5819959                  1_GWF-(1,439,493)
         92          1         92      0.19157102                  1_GWF-(3,439,494)       10.792818                  1_GWF-(1,443,491)
         93          1         93     -0.32616419                  1_GWF-(3,439,494)       9.1896724                  1_GWF-(1,440,493)
         94          1         94 -3.32251176E-02                  1_GWF-(2,439,494)       8.9954861                  1_GWF-(1,440,493)
         95          1         95     -0.18713883                  1_GWF-(2,439,494)       7.8622862                  1_GWF-(1,444,493)
         96          1         96  2.71560379E-02                  1_GWF-(2,439,494)       7.9454634                  1_GWF-(1,440,493)
         97          1         97 -1.90267038E-02                  1_GWF-(2,443,493)       7.7659881                  1_GWF-(1,440,493)
         98          1         98     -0.19738124                  1_GWF-(2,440,494)       6.8925140                  1_GWF-(1,446,494)
         99          1         99  4.69017891E-02                   1_GWF-(1,132,70)       6.6846404                  1_GWF-(1,448,494)
        100          1        100 -7.06826005E-03                  1_GWF-(3,440,494)       6.6371808                  1_GWF-(1,448,494)
        101          1        101     -0.74081334                  1_GWF-(1,441,493)       3.8927828                  1_GWF-(1,454,495)
        102          1        102      0.54840111                  1_GWF-(1,441,493)       5.7557629                  1_GWF-(1,446,494)
        103          1        103 -3.54971262E-02                  1_GWF-(1,442,493)       5.6200592                  1_GWF-(1,446,494)
        104          1        104 -4.82673688E-02                  1_GWF-(1,443,493)       5.4012986                  1_GWF-(1,446,494)
        105          1        105     -0.19078917                  1_GWF-(1,442,493)       4.5582953                  1_GWF-(1,446,494)
        106          1        106  5.18398035E-02                  1_GWF-(1,441,493)       4.7565997                  1_GWF-(1,446,494)
        107          1        107 -3.63879417E-02                  1_GWF-(1,443,493)       4.5752733                  1_GWF-(1,446,494)
        108          1        108     -0.18442920                  1_GWF-(1,450,496)       3.8920597                  1_GWF-(1,444,493)
        109          1        109 -3.97598839E-02                  1_GWF-(3,447,495)       3.2573042                  1_GWF-(1,460,496)
        110          1        110 -6.64460162E-02                  1_GWF-(3,446,495)       3.0131184                  1_GWF-(1,460,496)
        111          1        111 -6.52251945E-02                  1_GWF-(2,446,495)       2.7335711                  1_GWF-(1,461,496)
        112          1        112      0.15309973                  1_GWF-(3,446,495)       3.3766330                  1_GWF-(1,459,496)
        113          1        113     -0.19931248                  1_GWF-(2,446,495)       2.6066380                  1_GWF-(1,469,480)
        114          1        114 -2.13868628E-02                  1_GWF-(3,446,495)       2.4976071                  1_GWF-(1,469,480)
        115          1        115 -8.70257604E-02                  1_GWF-(3,446,495)       2.2287563                  1_GWF-(1,469,480)
        116          1        116  8.02226375E-03                  1_GWF-(2,440,490)       2.2424187                  1_GWF-(1,469,480)
        117          1        117 -9.48840711E-03                  1_GWF-(2,446,495)       2.2077022                  1_GWF-(1,469,480)
        118          1        118 -6.54256414E-02                  1_GWF-(3,446,495)       2.0071953                  1_GWF-(1,468,480)
        119          1        119 -1.57148897E-02                  1_GWF-(2,446,495)       1.9445207                  1_GWF-(1,469,480)
        120          1        120 -7.28667409E-02                  1_GWF-(2,446,495)      -1.8003788                  1_GWF-(1,282,167)
        121          1        121 -5.22128004E-03                  1_GWF-(3,478,494)      -1.8540903                  1_GWF-(1,284,168)
        122          1        122  2.38487216E-04                  1_GWF-(1,284,162)      -1.7796387                  1_GWF-(1,282,167)
        123          1        123 -2.73327264E-02                  1_GWF-(2,446,495)      -1.7849209                  1_GWF-(1,284,168)
        124          1        124 -5.02841396E-02                  1_GWF-(1,450,495)      -2.0315886                  1_GWF-(1,282,167)
        125          1        125 -1.65173763E-02                  1_GWF-(2,447,495)      -1.7501146                  1_GWF-(1,282,167)
        126          1        126 -4.33045759E-02                  1_GWF-(2,447,495)      -1.7521213                  1_GWF-(1,290,171)
        127          1        127 -9.98897061E-03                  1_GWF-(2,447,495)      -1.7881629                  1_GWF-(1,290,171)
        128          1        128     -0.59954488                  1_GWF-(2,447,495)      -2.5284820                  1_GWF-(1,440,493)
        129          1        129      0.55787732                  1_GWF-(2,447,495)      -1.8100324                  1_GWF-(1,290,171)
        130          1        130 -8.12208491E-03                  1_GWF-(1,450,495)      -1.8192359                  1_GWF-(1,290,171)
        131          1        131 -2.24843902E-02                  1_GWF-(1,450,496)      -1.7964087                  1_GWF-(1,290,171)
        132          1        132 -1.07237632E-02                  1_GWF-(3,477,495)      -1.8651042                  1_GWF-(1,290,171)
        133          1        133 -1.50966830E-02                  1_GWF-(3,477,495)      -1.7727202                  1_GWF-(1,290,171)
        134          1        134 -1.01680953E-02                  1_GWF-(3,480,495)      -1.8934019                  1_GWF-(1,290,171)
        135          1        135 -1.61024458E-02                  1_GWF-(3,479,495)      -1.7445616                  1_GWF-(1,290,171)
        136          1        136 -5.91553927E-03                  1_GWF-(3,481,495)      -1.8047091                  1_GWF-(1,290,171)
        137          1        137     -0.12312257                  1_GWF-(3,480,495)      -1.5647704                  1_GWF-(1,290,172)
        138          1        138  9.68828199E-02                  1_GWF-(3,478,495)      -2.0990078                  1_GWF-(1,290,171)
        139          1        139 -4.34989635E-03                  1_GWF-(3,482,495)      -1.6162768                  1_GWF-(1,290,172)
        140          1        140      0.17718190                  1_GWF-(1,282,168)     -0.67311760                  1_GWF-(1,280,166)
        141          1        141 -2.50752674E-03                  1_GWF-(3,438,489)     -0.54671482                  1_GWF-(1,280,166)
        142          1        142 -4.45473816E-03                  1_GWF-(4,435,497)     -0.58552375                  1_GWF-(1,280,166)
        143          1        143 -2.41084145E-03                  1_GWF-(4,435,497)     -0.49989451                  1_GWF-(1,279,165)
        144          1        144 -4.45829018E-03                  1_GWF-(4,435,497)     -0.63332516                  1_GWF-(1,280,166)
        145          1        145 -1.50684841E-03                  1_GWF-(3,442,492)     -0.46865851                  1_GWF-(1,279,165)
        146          1        146 -6.38745680E-03                  1_GWF-(3,441,492)     -0.44755450                  1_GWF-(1,280,166)
        147          1        147  3.58826159E-03                  1_GWF-(1,346,513)     -0.53709850                  1_GWF-(1,280,166)
        148          1        148 -7.19130256E-04                  1_GWF-(2,443,491)     -0.50017424                  1_GWF-(1,279,165)
        149          1        149      0.13301152                  1_GWF-(1,441,492)      -1.3204498                  1_GWF-(1,280,166)
        150          1        150     -0.13729215                  1_GWF-(1,441,492)     -0.41662656                  1_GWF-(1,280,166)
        151          1        151 -1.16012493E-03                  1_GWF-(1,441,493)     -0.45750687                  1_GWF-(1,280,166)
        152          1        152 -1.30166113E-03                  1_GWF-(1,441,493)     -0.39456829                  1_GWF-(1,280,166)
        153          1        153 -2.45244781E-03                  1_GWF-(1,441,493)     -0.39644367                  1_GWF-(1,280,166)
        154          1        154 -6.03047630E-04                  1_GWF-(3,502,495)     -0.39750208                  1_GWF-(1,280,166)
        155          1        155  1.29960468E-03                  1_GWF-(1,441,493)     -0.39035295                  1_GWF-(1,280,166)
        156          1        156 -4.32437522E-03                  1_GWF-(1,441,493)     -0.34114654                  1_GWF-(1,280,166)
        157          1        157  3.82528538E-03                  1_GWF-(1,276,163)     -0.44271043                  1_GWF-(1,280,166)
        158          1        158  9.97667483E-04                  1_GWF-(3,498,495)     -0.32357501                  1_GWF-(1,281,166)
        159          1        159 -3.06185115E-03                  1_GWF-(3,499,495)     -0.28253920                  1_GWF-(1,280,166)
        160          1        160  2.53089033E-03                  1_GWF-(1,278,163)     -0.28778431                  1_GWF-(1,280,166)
        161          1        161  1.30101664E-03                  1_GWF-(1,277,164)     -0.28151854                  1_GWF-(1,280,166)
        162          1        162  8.27188888E-04                  1_GWF-(1,277,163)     -0.24006911                  1_GWF-(1,280,166)
        163          1        163  1.38260344E-03                  1_GWF-(1,277,165)     -0.22533015                  1_GWF-(1,282,167)
        164          1        164  5.15476275E-05                  1_GWF-(1,279,521)     -0.22549564                  1_GWF-(1,281,166)
        165          2          1       45.170122                    1_GWF-(1,92,93)       480.59494                  1_GWF-(1,309,192)
        166          2          2       13.260292                  1_GWF-(1,371,476)       378.58655                  1_GWF-(1,302,226)
        167          2          3       30.572772                  1_GWF-(4,205,586)       465.39563                  1_GWF-(2,303,225)
        168          2          4       34.746649                  1_GWF-(4,205,586)       524.81893                  1_GWF-(2,303,225)
        169          2          5       22.968918                  1_GWF-(4,205,586)       437.65607                  1_GWF-(2,303,225)
        170          2          6       17.755678                  1_GWF-(1,264,221)      -281.00312                  1_GWF-(1,302,226)
        171          2          7       24.540153                  1_GWF-(1,264,221)       265.64179                  1_GWF-(1,311,190)
        172          2          8      -25.070547                  1_GWF-(4,265,553)      -296.97610                  1_GWF-(2,303,226)
        173          2          9      -32.841725                  1_GWF-(4,322,538)      -441.32112                  1_GWF-(2,303,225)
        174          2         10      -115.83086                  1_GWF-(4,321,537)      -349.61006                  1_GWF-(2,303,225)
        175          2         11       35.747172                  1_GWF-(4,211,573)      -382.25309                  1_GWF-(2,303,225)
        176          2         12       72.193202                  1_GWF-(4,321,537)      -317.72046                  1_GWF-(2,303,225)
        177          2         13       63.971184                  1_GWF-(4,210,572)      -288.79376                  1_GWF-(2,303,225)
        178          2         14       74.188839                  1_GWF-(4,207,571)      -237.17931                  1_GWF-(2,303,225)
        179          2         15      -18.148410                  1_GWF-(4,203,568)      -215.62833                  1_GWF-(2,303,225)
        180          2         16      -88.111016                  1_GWF-(4,207,570)      -472.27550                  1_GWF-(2,303,225)
        181          2         17      -67.606728                  1_GWF-(4,203,568)      -358.58384                  1_GWF-(2,303,225)
        182          2         18       94.788739                  1_GWF-(1,264,221)       138.51329                  1_GWF-(1,313,184)
        183          2         19       22.038222                  1_GWF-(1,264,221)       136.69702                  1_GWF-(1,313,183)
        184          2         20       4.2745426                  1_GWF-(4,203,567)       129.93167                  1_GWF-(1,313,184)
        185          2         21       23.982028                  1_GWF-(4,202,567)       118.79120                  1_GWF-(1,313,184)
        186          2         22       13.415104                  1_GWF-(4,202,567)       116.25189                  1_GWF-(1,313,183)
        187          2         23       91.067244                  1_GWF-(4,202,567)      -218.03689                  1_GWF-(2,303,225)
        188          2         24      -127.28621                  1_GWF-(4,202,567)       83.310418                  1_GWF-(1,313,183)
        189          2         25       1768.3447                  1_GWF-(1,264,221)       2760.5828                  1_GWF-(2,303,225)
        190          2         26      -1780.0165                  1_GWF-(1,264,221)       92.889894                  1_GWF-(1,313,183)
        191          2         27       49.259792                  1_GWF-(1,264,221)       52.735083                  1_GWF-(1,296,224)
        192          2         28      -6.3041705                  1_GWF-(4,204,566)       49.771978                  1_GWF-(1,296,224)
        193          2         29      -23.482780                  1_GWF-(1,264,221)      -94.740082                  1_GWF-(4,335,522)
        194          2         30       33.096057                  1_GWF-(1,264,221)       45.224430                  1_GWF-(1,296,224)
        195          2         31       6.7312047                  1_GWF-(1,264,221)       42.904223                  1_GWF-(1,290,172)
        196          2         32       1.7432862                  1_GWF-(1,264,221)       39.608715                  1_GWF-(2,394,501)
        197          2         33      -693.87512                  1_GWF-(1,264,221)       1255.3118                  1_GWF-(1,296,224)
        198          2         34       702.06241                  1_GWF-(1,264,221)       37.342095                  1_GWF-(2,394,501)
        199          2         35       2.5096516                  1_GWF-(4,202,567)       36.704103                  1_GWF-(1,394,501)
        200          2         36       18.756887                  1_GWF-(1,264,221)       32.461568                  1_GWF-(2,394,501)
        201          2         37      -47.479923                  1_GWF-(1,264,221)       51.907773                  1_GWF-(1,296,224)
        202          2         38       326.16701                  1_GWF-(1,264,221)      -431.98850                  1_GWF-(1,296,224)
        203          2         39      -279.13276                  1_GWF-(1,264,221)       31.466239                  1_GWF-(2,394,501)
        204          2         40       13.639127                  1_GWF-(1,264,221)      -29.442393                  1_GWF-(1,296,224)
        205          2         41       1.3964080                  1_GWF-(4,203,567)      -26.357869                  1_GWF-(1,296,224)
        206          2         42      0.74690337                  1_GWF-(1,264,221)      -26.204907                  1_GWF-(1,296,224)
        207          2         43      0.21233529                  1_GWF-(4,202,567)      -25.534862                  1_GWF-(1,296,224)
        208          2         44      -3.5023537                  1_GWF-(1,299,202)      -46.957565                  1_GWF-(1,203,556)
        209          2         45      0.41100328                  1_GWF-(4,202,567)       20.302113                  1_GWF-(2,394,501)
        210          2         46      -5.4367492                  1_GWF-(1,264,221)       24.413855                  1_GWF-(2,394,501)
        211          2         47      -39.986051                  1_GWF-(1,264,221)       54.082748                  1_GWF-(2,394,501)
        212          2         48       76.939648                  1_GWF-(1,264,221)      -24.022212                  1_GWF-(2,203,556)
        213          2         49     -0.36922701                  1_GWF-(4,300,532)      -20.096223                  1_GWF-(2,303,225)
        214          2         50      -2.1729065                  1_GWF-(1,264,221)      -23.676676                  1_GWF-(2,203,556)
        215          2         51      0.24420462                  1_GWF-(4,299,531)      -19.858023                  1_GWF-(1,203,556)
        216          2         52     -0.25581113                  1_GWF-(1,322,526)      -24.166674                  1_GWF-(2,203,556)
        217          2         53      -1.0173966                   1_GWF-(4,51,332)      -32.833780                  1_GWF-(1,203,556)
        218          2         54       3.7675392                   1_GWF-(4,51,332)      -18.538371                  1_GWF-(2,203,556)
        219          2         55       1.0042341                   1_GWF-(4,51,332)      -33.156140                  1_GWF-(2,203,556)
        220          2         56     -0.33259287                   1_GWF-(4,51,332)      -18.365423                  1_GWF-(2,203,556)
        221          2         57       5.6921778                   1_GWF-(4,51,332)      -18.090064                  1_GWF-(2,203,556)
        222          2         58       3.1557933                   1_GWF-(4,51,332)      -28.804613                  1_GWF-(2,203,556)
        223          2         59       1.1269863                   1_GWF-(4,51,332)      -17.435174                  1_GWF-(2,203,556)
        224          2         60      0.57666569                   1_GWF-(4,51,332)      -19.777234                  1_GWF-(2,203,556)
        225          2         61       1.2591815                   1_GWF-(4,51,332)      -18.507661                  1_GWF-(2,203,556)
        226          2         62      -9.3084785                   1_GWF-(4,51,332)      -19.347861                  1_GWF-(1,203,556)
        227          2         63      0.21852351                   1_GWF-(4,51,332)      -24.228749                  1_GWF-(2,203,556)
        228          2         64       55.027315                   1_GWF-(4,51,332)       34.340385                  1_GWF-(2,303,225)
        229          2         65      -22.242793                   1_GWF-(4,51,332)      -29.512726                  1_GWF-(2,203,556)
        230          2         66       42.298891                   1_GWF-(4,51,332)       36.396536                  1_GWF-(2,303,225)
        231          2         67      -43.510961                   1_GWF-(4,51,332)      -33.131870                  1_GWF-(2,203,556)
        232          2         68      0.38315193                   1_GWF-(4,51,332)      -16.338391                  1_GWF-(2,203,556)
        233          2         69       6.6989221                   1_GWF-(4,51,332)      -15.947390                  1_GWF-(2,203,556)
        234          2         70       2.3813985                   1_GWF-(4,51,332)      -18.270037                  1_GWF-(2,203,556)
        235          2         71     -0.70741661                   1_GWF-(4,51,332)      -16.182751                  1_GWF-(1,203,556)
        236          2         72       5.2803628                   1_GWF-(4,51,332)      -15.818492                  1_GWF-(2,203,556)
        237          2         73      -1.2974214                   1_GWF-(4,51,332)      -19.268468                  1_GWF-(2,203,556)
        238          2         74      0.18862880                   1_GWF-(4,51,332)      -16.244685                  1_GWF-(2,203,556)
        239          2         75     -0.27252135                   1_GWF-(4,51,332)      -17.354566                  1_GWF-(2,203,556)
        240          2         76      -3.8967177                   1_GWF-(4,51,332)      -15.931961                  1_GWF-(2,203,556)
        241          2         77       46.021076                   1_GWF-(4,51,332)      -12.903872                  1_GWF-(1,203,556)
        242          2         78      -30.195642                   1_GWF-(4,51,332)      -14.710144                  1_GWF-(2,203,556)
        243          2         79       3.2600516                   1_GWF-(4,51,332)      -18.519231                  1_GWF-(1,203,556)
        244          2         80      -40.168818                   1_GWF-(4,51,332)      -45.551207                  1_GWF-(2,203,556)
        245          2         81       38.852528                   1_GWF-(4,51,332)      -14.809733                  1_GWF-(2,203,556)
        246          2         82       1.0160530                   1_GWF-(4,51,332)      -17.363807                  1_GWF-(1,203,556)
        247          2         83      0.22296778                  1_GWF-(1,278,536)      -14.546779                  1_GWF-(2,203,556)
        248          2         84      -2.5781357                   1_GWF-(4,51,332)      -14.289528                  1_GWF-(1,203,556)
        249          2         85       11.316314                   1_GWF-(4,51,332)      -13.602550                  1_GWF-(1,203,556)
        250          2         86      -28.850988                   1_GWF-(4,51,332)      -17.562277                  1_GWF-(1,203,556)
        251          2         87      -26.922745                   1_GWF-(4,51,332)      -19.538646                  1_GWF-(1,203,556)
        252          2         88       52.528813                   1_GWF-(4,51,332)      -15.769982                  1_GWF-(2,203,556)
        253          2         89       7.1858242                   1_GWF-(4,51,332)      -13.125327                  1_GWF-(2,203,556)
        254          2         90       1.1403581                   1_GWF-(4,51,332)      -13.117083                  1_GWF-(1,203,556)
        255          2         91     -0.15324104                   1_GWF-(4,51,332)      -14.237384                  1_GWF-(2,203,556)
        256          2         92      0.22115114                   1_GWF-(4,51,332)      -14.644681                  1_GWF-(2,203,556)
        257          2         93       5.6401344                   1_GWF-(4,51,332)      -13.053728                  1_GWF-(1,203,556)
        258          2         94      -4.7317207                   1_GWF-(4,51,332)      -15.319000                  1_GWF-(2,203,556)
        259          2         95      0.39316853                   1_GWF-(4,51,332)      -13.001093                  1_GWF-(2,203,556)
        260          2         96       1.5864599                   1_GWF-(4,51,332)      -12.814134                  1_GWF-(1,203,556)
        261          2         97      -11.405758                   1_GWF-(4,51,332)      -14.392003                  1_GWF-(2,203,556)
        262          2         98      -46.827227                   1_GWF-(4,51,332)      -20.758397                  1_GWF-(2,203,556)
        263          2         99       64.392687                   1_GWF-(4,51,332)      -11.842776                  1_GWF-(2,203,556)
        264          2        100       29.616676                   1_GWF-(4,51,332)      -11.593168                  1_GWF-(1,203,556)
        265          2        101      -24.212399                   1_GWF-(4,51,332)      -14.814247                  1_GWF-(2,203,556)
        266          2        102  5.10465107E-03                  1_GWF-(1,299,528)      -11.197965                  1_GWF-(1,203,556)
        267          2        103      0.11064880                   1_GWF-(4,51,332)      -11.475292                  1_GWF-(1,203,556)
        268          2        104     -0.70788963                   1_GWF-(4,51,332)      -11.379341                  1_GWF-(2,203,556)
        269          2        105      -4.0598548                   1_GWF-(4,51,332)      -11.802735                  1_GWF-(2,203,556)
        270          2        106      0.79810153                  1_GWF-(1,264,221)      -17.523095                  1_GWF-(2,203,556)
        271          2        107  9.00767710E-03                  1_GWF-(4,198,563)      -11.630101                  1_GWF-(1,203,556)
        272          2        108       1.7126857                   1_GWF-(4,51,332)      -11.813618                  1_GWF-(2,203,556)
        273          2        109       11.539509                   1_GWF-(4,51,332)      -12.566849                  1_GWF-(1,203,556)
        274          2        110      -12.110639                   1_GWF-(4,51,332)      -12.376525                  1_GWF-(2,203,556)
        275          2        111      0.42524037                   1_GWF-(4,51,332)      -12.249334                  1_GWF-(1,203,556)
        276          2        112      -1.0961115                   1_GWF-(4,51,332)      -14.416436                  1_GWF-(2,203,556)
        277          2        113      -2.1647242                   1_GWF-(4,51,332)      -12.690722                  1_GWF-(2,203,556)
        278          2        114       6.2526429                   1_GWF-(4,51,332)      -10.849711                  1_GWF-(2,203,556)
        279          2        115       1.9603230                   1_GWF-(4,51,332)      -11.040125                  1_GWF-(1,203,556)
        280          2        116     -0.81237046                   1_GWF-(4,51,332)      -11.084868                  1_GWF-(2,203,556)
        281          2        117 -4.11845426E-02                   1_GWF-(4,51,332)      -10.525645                  1_GWF-(1,203,556)
        282          2        118       1.0197959                   1_GWF-(4,51,332)      -10.718205                  1_GWF-(2,203,556)
        283          2        119       47.425430                   1_GWF-(4,51,332)      -14.908529                  1_GWF-(2,193,558)
        284          2        120      -39.771508                   1_GWF-(4,51,332)      -9.5544189                  1_GWF-(2,203,556)
        285          2        121       13.164532                   1_GWF-(4,51,332)      -6.4009421                  1_GWF-(2,203,556)
        286          2        122      -21.353757                   1_GWF-(4,51,332)      -10.913021                  1_GWF-(2,203,556)
        287          2        123       1.4363991                   1_GWF-(4,51,332)      -10.137710                  1_GWF-(2,203,556)
        288          2        124      0.24497629                   1_GWF-(4,51,332)      -10.575106                  1_GWF-(2,203,556)
        289          2        125  9.74097767E-02                   1_GWF-(4,51,332)      -9.9875138                  1_GWF-(2,203,556)
        290          2        126      0.18177211                   1_GWF-(4,51,332)      -10.303858                  1_GWF-(2,203,556)
        291          2        127       4.3947965                   1_GWF-(4,51,332)      -8.6611937                  1_GWF-(2,203,556)
        292          2        128     -0.59313207                   1_GWF-(4,51,332)      -9.2891647                  1_GWF-(2,203,556)
        293          2        129      0.94621291                   1_GWF-(4,51,332)      -8.4420496                  1_GWF-(1,203,556)
        294          2        130      -1.5717208                   1_GWF-(4,51,332)      -8.9027935                  1_GWF-(2,203,556)
        295          2        131      0.11498951                   1_GWF-(4,51,332)      -9.8102339                  1_GWF-(2,203,556)
        296          2        132      0.44916345                   1_GWF-(4,51,332)      -9.4477443                  1_GWF-(2,203,556)
        297          2        133  1.23870659E-02                  1_GWF-(1,298,528)      -8.6629930                  1_GWF-(2,203,556)
        298          2        134 -5.56880922E-02                   1_GWF-(4,51,332)      -9.5378344                  1_GWF-(1,203,556)
        299          2        135  1.63451328E-02                  1_GWF-(1,298,528)      -9.0157437                  1_GWF-(1,203,556)
        300          2        136 -7.26929284E-02                   1_GWF-(4,51,332)      -8.6742353                  1_GWF-(2,203,556)
        301          2        137     -0.27475174                   1_GWF-(4,51,332)      -9.1410611                  1_GWF-(2,203,556)
        302          2        138  7.85048341E-02                  1_GWF-(4,198,562)      -9.9932357                  1_GWF-(1,203,556)
        303          2        139 -7.07527676E-02                  1_GWF-(1,241,546)      -9.0176465                  1_GWF-(2,203,556)
        304          2        140 -1.66471967E-02                  1_GWF-(1,203,556)      -8.7456350                  1_GWF-(2,203,556)
        305          2        141  2.78871518E-02                   1_GWF-(4,51,332)      -8.5208667                  1_GWF-(1,203,556)
        306          2        142 -1.79927546E-02                   1_GWF-(4,51,332)      -8.7016863                  1_GWF-(2,203,556)
        307          2        143       1.3564001                  1_GWF-(1,203,556)      -7.4211846                  1_GWF-(2,203,556)
        308          2        144      -1.9917836                  1_GWF-(1,203,556)      -9.0935352                  1_GWF-(2,203,556)
        309          2        145     -0.81039467                  1_GWF-(1,203,556)      -9.9512328                  1_GWF-(1,203,556)
        310          2        146       1.1218720                  1_GWF-(1,203,556)      -9.3461017                  1_GWF-(2,203,556)
        311          2        147       9.9774285                  1_GWF-(1,203,556)       3.4336768                  1_GWF-(2,342,180)
        312          2        148      -8.1050080                  1_GWF-(1,203,556)      -7.1181301                  1_GWF-(2,203,556)
        313          2        149  5.61492638E-02                  1_GWF-(2,203,556)      -7.2778069                  1_GWF-(1,203,556)
        314          2        150     -0.38727191                  1_GWF-(1,203,556)      -7.4826787                  1_GWF-(2,203,556)
        315          2        151      0.11744745                  1_GWF-(1,203,556)      -7.7304595                  1_GWF-(2,203,556)
        316          2        152 -8.45386930E-03                  1_GWF-(1,203,556)      -7.3459241                  1_GWF-(1,203,556)
        317          2        153  5.02919564E-02                  1_GWF-(1,203,556)      -7.3262750                  1_GWF-(2,203,556)
        318          2        154      0.16197840                  1_GWF-(1,203,556)      -7.2111055                  1_GWF-(2,203,556)
        319          2        155 -4.73101285E-02                  1_GWF-(1,203,556)      -7.1551023                  1_GWF-(2,203,556)
        320          2        156     -0.22001347                   1_GWF-(4,51,332)      -7.2093691                  1_GWF-(2,203,556)
        321          2        157  3.23262761E-02                  1_GWF-(4,198,563)      -7.6580571                  1_GWF-(2,203,556)
        322          2        158      0.20637720                  1_GWF-(2,203,556)      -7.1306674                  1_GWF-(2,203,556)
        323          2        159      0.25441954                  1_GWF-(1,203,556)      -6.7275128                  1_GWF-(2,203,556)
        324          2        160      0.27321407                  1_GWF-(1,203,556)      -6.4673914                  1_GWF-(2,203,556)
        325          2        161 -9.50193132E-02                  1_GWF-(1,203,556)      -6.5832915                  1_GWF-(2,203,556)
        326          2        162  4.41323515E-02                  1_GWF-(2,203,556)      -6.4600313                  1_GWF-(2,203,556)
        327          2        163  4.65434036E-02                  1_GWF-(1,203,556)      -6.4218229                  1_GWF-(2,203,556)
        328          2        164 -1.10594746E-02                   1_GWF-(4,51,332)      -6.4248019                  1_GWF-(1,203,556)
        329          2        165 -1.14679069E-02                  1_GWF-(1,203,556)      -6.4754945                  1_GWF-(1,203,556)
        330          2        166 -5.89262948E-02                   1_GWF-(4,51,332)      -6.8007122                  1_GWF-(2,203,556)
        331          2        167  4.87952434E-03                  1_GWF-(4,198,563)      -6.4489468                  1_GWF-(1,203,556)
        332          2        168 -4.18536819E-02                   1_GWF-(4,51,332)      -6.5309906                  1_GWF-(2,203,556)
        333          2        169  1.85673902E-02                  1_GWF-(4,198,563)      -6.4571947                  1_GWF-(2,203,556)
        334          2        170  9.97244825E-03                   1_GWF-(4,51,332)      -6.4805728                  1_GWF-(1,203,556)
        335          2        171 -1.85759160E-03                   1_GWF-(4,51,332)      -6.4525877                  1_GWF-(2,203,556)
        336          2        172 -4.95497742E-02                   1_GWF-(4,51,332)      -6.3805287                  1_GWF-(2,203,556)
        337          2        173     -0.39044464                   1_GWF-(4,51,332)      -6.2260869                  1_GWF-(2,203,556)
        338          2        174     -0.76725063                   1_GWF-(4,51,332)      -5.8027744                  1_GWF-(2,203,556)
        339          2        175 -2.98352902E-02                   1_GWF-(4,51,332)      -5.7238610                  1_GWF-(1,203,556)
        340          3          1      -194.39196                  1_GWF-(1,264,221)       45040.688                  1_GWF-(1,264,221)
        341          3          2       46.779880                  1_GWF-(1,626,418)       10947.718                  1_GWF-(1,264,221)
        342          3          3      -39.047026                  1_GWF-(1,626,418)      -6240.0918                  1_GWF-(1,303,195)
        343          3          4       69.373343                  1_GWF-(1,306,196)      -5025.2292                  1_GWF-(1,303,195)
        344          3          5       89.565675                  1_GWF-(1,306,196)      -3954.9038                  1_GWF-(1,305,197)
        345          3          6       135.23996                  1_GWF-(1,306,196)      -3389.3843                  1_GWF-(1,305,197)
        346          3          7       119.21623                  1_GWF-(1,306,196)      -2851.9476                  1_GWF-(1,305,197)
        347          3          8       124.85250                  1_GWF-(1,306,196)      -2483.5965                  1_GWF-(1,305,197)
        348          3          9       117.22327                  1_GWF-(1,306,196)      -2029.7420                  1_GWF-(1,305,197)
        349          3         10       115.91367                  1_GWF-(1,306,196)      -1628.4908                  1_GWF-(1,305,197)
        350          3         11       93.830728                  1_GWF-(1,306,196)      -1232.3579                  1_GWF-(1,305,197)
        351          3         12       89.608152                  1_GWF-(1,306,196)      -897.07207                  1_GWF-(1,305,197)
        352          3         13       89.213111                  1_GWF-(1,306,196)      -552.52578                  1_GWF-(1,305,197)
        353          3         14       87.119831                  1_GWF-(1,306,196)      -376.44029                  1_GWF-(1,303,197)
        354          3         15       117.73619                  1_GWF-(1,306,196)       243.78675                  1_GWF-(1,301,208)
        355          3         16       20.662318                  1_GWF-(1,306,196)       204.38785                  1_GWF-(1,300,207)
        356          3         17      -13.141541                  1_GWF-(4,220,557)       201.48338                  1_GWF-(1,300,207)
        357          3         18       75.376497                  1_GWF-(1,306,196)       173.59250                  1_GWF-(1,305,197)
        358          3         19       51.074869                  1_GWF-(1,306,196)       270.33183                  1_GWF-(1,305,197)
        359          3         20       74.165733                  1_GWF-(1,306,196)       454.35859                  1_GWF-(1,305,197)
        360          3         21       68.701933                  1_GWF-(1,306,196)       616.05758                  1_GWF-(1,305,197)
        361          3         22       83.424078                  1_GWF-(1,306,196)       823.37046                  1_GWF-(1,305,197)
        362          3         23       79.553749                  1_GWF-(1,306,196)       1021.5971                  1_GWF-(1,305,197)
        363          3         24       87.376392                  1_GWF-(1,306,196)       1253.5526                  1_GWF-(1,305,197)
        364          3         25       33.010737                  1_GWF-(1,306,196)       1343.3306                  1_GWF-(1,305,197)
        365          3         26       196.87898                  1_GWF-(1,306,196)       2024.5144                  1_GWF-(1,305,197)
        366          3         27      -36.703098                  1_GWF-(4,245,545)       2101.7487                  1_GWF-(1,305,197)
        367          3         28      -129.39631                  1_GWF-(1,306,196)       1564.5506                  1_GWF-(1,305,197)
        368          3         29      -24.869165                  1_GWF-(4,246,545)       1676.5041                  1_GWF-(1,305,197)
        369          3         30       9.6467020                  1_GWF-(1,306,196)       1722.0960                  1_GWF-(1,305,197)
        370          3         31      -36.656461                  1_GWF-(4,245,545)       1749.4176                  1_GWF-(1,305,197)
        371          3         32       15.472780                  1_GWF-(1,242,545)       1641.4932                  1_GWF-(1,305,197)
        372          3         33      -89.813518                  1_GWF-(1,306,196)       1628.7595                  1_GWF-(1,305,197)
        373          3         34      -727.87387                  1_GWF-(1,306,196)       570.23957                  1_GWF-(1,295,224)
        374          3         35      -7.3587101                  1_GWF-(1,242,545)       416.55189                  1_GWF-(1,305,197)
        375          3         36       32.013410                  1_GWF-(1,242,545)       361.60381                  1_GWF-(1,305,197)
        376          3         37      -40.716638                  1_GWF-(1,306,196)       289.78739                  1_GWF-(1,305,197)
        377          3         38       15.024815                  1_GWF-(4,245,545)       317.50793                  1_GWF-(1,305,197)
        378          3         39       5.9988454                  1_GWF-(1,242,545)       294.55331                  1_GWF-(1,305,197)
        379          3         40      -179.30355                  1_GWF-(1,306,196)       424.12824                  1_GWF-(2,303,225)
        380          3         41       26.295273                  1_GWF-(1,299,528)       522.50684                  1_GWF-(2,303,225)
        381          3         42       25.078510                  1_GWF-(1,306,196)       358.90310                  1_GWF-(3,303,225)
        382          3         43       6.6850773                  1_GWF-(1,306,196)       374.75975                  1_GWF-(2,303,225)
        383          3         44      -70.072650                  1_GWF-(1,306,196)       448.28030                  1_GWF-(2,303,225)
        384          3         45      -7334.7896                  1_GWF-(1,306,196)      -10099.698                  1_GWF-(1,296,224)
        385          3         46       7818.5438                  1_GWF-(1,306,196)       592.56759                  1_GWF-(1,296,224)
        386          3         47       293.39467                  1_GWF-(1,306,196)       718.56671                  1_GWF-(1,305,197)
        387          3         48       47.902827                  1_GWF-(4,245,545)       689.78285                  1_GWF-(1,305,197)
        388          3         49      -86.321381                  1_GWF-(1,242,545)      -705.22435                  1_GWF-(4,243,544)
        389          3         50       76.381988                  1_GWF-(1,245,543)       572.57960                  1_GWF-(1,305,197)
        390          3         51      -25.162502                  1_GWF-(4,246,545)       524.64241                  1_GWF-(1,305,197)
        391          3         52      -14.443541                  1_GWF-(1,299,528)       516.34333                  1_GWF-(1,305,197)
        392          3         53       17.982725                  1_GWF-(1,299,528)       520.41306                  1_GWF-(1,305,197)
        393          3         54      -13.489173                  1_GWF-(1,306,196)       527.42839                  1_GWF-(1,305,197)
        394          3         55      -434.37797                  1_GWF-(1,306,196)       281.05979                  1_GWF-(1,305,197)
        395          3         56      -161.41072                  1_GWF-(1,306,196)       235.80070                  1_GWF-(1,305,197)
        396          3         57       30.205814                  1_GWF-(1,306,196)       238.90319                  1_GWF-(1,305,197)
        397          3         58      0.86887510                  1_GWF-(4,316,525)       220.46541                  1_GWF-(1,305,197)
        398          3         59      -22.793271                  1_GWF-(1,306,196)       209.48197                  1_GWF-(1,305,197)
        399          3         60      -286.68950                  1_GWF-(1,306,196)       51.867320                  1_GWF-(1,305,197)
        400          3         61      -17.748032                  1_GWF-(1,306,196)       43.128314                  1_GWF-(1,305,197)
        401          3         62      0.81376776                  1_GWF-(1,299,528)       36.876392                  1_GWF-(1,305,197)
        402          3         63      -102.03825                  1_GWF-(1,306,196)      -37.337513                  1_GWF-(3,303,225)
        403          3         64      -3.7050826                  1_GWF-(1,306,196)      -47.751626                  1_GWF-(2,303,225)
        404          3         65       20.654490                  1_GWF-(1,306,196)      -32.466993                  1_GWF-(2,303,225)
        405          3         66       1.7276064                  1_GWF-(4,316,525)      -34.465522                  1_GWF-(2,303,225)
        406          3         67     -0.35661901                  1_GWF-(4,317,525)      -27.233696                  1_GWF-(2,303,225)
        407          3         68       2.9364783                  1_GWF-(1,306,196)      -27.922612                  1_GWF-(2,303,225)
        408          3         69      -21.269561                  1_GWF-(1,306,196)      -31.097435                  1_GWF-(2,303,225)
        409          3         70      -8.4607354                  1_GWF-(1,306,196)      -28.145958                  1_GWF-(2,303,225)
        410          3         71       13.715503                  1_GWF-(1,306,196)      -25.441362                  1_GWF-(2,303,225)
        411          3         72     -0.76438676                  1_GWF-(4,316,525)      -27.492324                  1_GWF-(2,303,225)
        412          3         73       2.7219573                  1_GWF-(1,306,196)      -20.922231                  1_GWF-(2,303,225)
        413          3         74       3.2365793                  1_GWF-(4,316,525)      -24.722859                  1_GWF-(2,303,225)
        414          3         75 -7.57122545E-02                  1_GWF-(4,316,525)      -26.753626                  1_GWF-(2,303,225)
        415          3         76       4.5613862                  1_GWF-(1,306,196)      -16.398193                  1_GWF-(1,136,177)
        416          3         77      0.20792632                  1_GWF-(4,316,525)      -15.276405                  1_GWF-(1,136,177)
        417          3         78       1.4424088                  1_GWF-(4,316,525)      -14.682561                  1_GWF-(2,391,502)
        418          3         79     -0.34600083                  1_GWF-(4,316,525)      -14.689126                  1_GWF-(2,391,502)
        419          3         80      0.14632566                  1_GWF-(4,316,525)      -15.696185                  1_GWF-(1,137,177)
        420          3         81      0.16953798                  1_GWF-(4,316,525)      -14.931303                  1_GWF-(1,137,177)
        421          3         82     -0.76714610                  1_GWF-(1,306,196)      -15.667744                  1_GWF-(1,137,177)
        422          3         83      0.20060255                  1_GWF-(1,306,196)      -16.388499                  1_GWF-(1,137,177)
        423          3         84     -0.22486690                  1_GWF-(1,306,196)      -16.093738                  1_GWF-(1,137,177)
        424          3         85       3.8784909                  1_GWF-(1,306,196)      -14.373922                  1_GWF-(2,391,502)
        425          3         86      -13.291137                  1_GWF-(1,306,196)      -35.611724                  1_GWF-(2,303,225)
        426          3         87      -16.767236                  1_GWF-(1,306,196)       69.077969                  1_GWF-(2,311,522)
        427          3         88       3.9609344                  1_GWF-(1,306,196)       59.890282                  1_GWF-(2,311,522)
        428          3         89       25.996843                  1_GWF-(1,306,196)       21.871661                  1_GWF-(2,311,522)
        429          3         90      -3.6298730                  1_GWF-(1,306,196)      -21.718447                  1_GWF-(1,137,177)
        430          3         91       12.618312                  1_GWF-(1,306,196)      -13.184472                  1_GWF-(2,391,502)
        431          3         92 -1.89173953E-02                  1_GWF-(1,306,196)      -13.164935                  1_GWF-(1,391,502)
        432          3         93       2.0195463                  1_GWF-(1,306,196)      -12.922615                  1_GWF-(2,391,502)
        433          3         94      -177.03157                  1_GWF-(1,306,196)      -249.17499                  1_GWF-(1,137,177)
        434          3         95       170.74558                  1_GWF-(1,306,196)      -13.731634                  1_GWF-(1,391,502)
        435          3         96     -0.34327504                  1_GWF-(1,306,196)      -13.774980                  1_GWF-(1,391,502)
        436          3         97      -4.1883585                  1_GWF-(1,306,196)      -14.293008                  1_GWF-(2,391,502)
        437          3         98       3.4166235                  1_GWF-(1,306,196)      -13.868266                  1_GWF-(1,391,502)
        438          3         99       2.0496871                  1_GWF-(1,306,196)      -13.595852                  1_GWF-(2,391,502)
        439          3        100      -8.7158252                  1_GWF-(1,306,196)      -14.726182                  1_GWF-(1,391,502)
        440          3        101      -22.019870                  1_GWF-(1,306,196)      -38.289278                  1_GWF-(1,137,177)
        441          3        102      -4.4134178                  1_GWF-(1,306,196)      -38.876326                  1_GWF-(1,136,177)
        442          3        103       7.2839156                  1_GWF-(1,306,196)      -32.411929                  1_GWF-(1,137,177)
        443          3        104       1.3640949                  1_GWF-(1,306,196)      -29.609388                  1_GWF-(1,137,177)
        444          3        105      -6.0980928                  1_GWF-(1,306,196)      -37.338670                  1_GWF-(1,137,177)
        445          3        106      -2.0397397                  1_GWF-(1,306,196)      -38.980324                  1_GWF-(1,137,177)
        446          3        107      0.27268197                  1_GWF-(1,306,196)      -37.626194                  1_GWF-(1,137,177)
        447          3        108      -5.8895886                  1_GWF-(1,306,196)      -43.413699                  1_GWF-(1,137,177)
        448          3        109       28.750869                  1_GWF-(1,306,196)      -15.051394                  1_GWF-(2,391,502)
        449          3        110      -6.3885405                  1_GWF-(1,306,196)      -21.418039                  1_GWF-(1,137,177)
        450          3        111       3.8272919                  1_GWF-(1,306,196)      -17.356887                  1_GWF-(1,137,177)
        451          3        112      -26.888259                  1_GWF-(1,306,196)      -44.321791                  1_GWF-(1,137,177)
        452          3        113       41.680108                  1_GWF-(1,306,196)      -13.080669                  1_GWF-(2,391,502)
        453          3        114      -2.6101669                  1_GWF-(1,306,196)      -13.509370                  1_GWF-(1,391,502)
        454          3        115       6.1740252                  1_GWF-(1,306,196)      -12.517897                  1_GWF-(2,391,502)
        455          3        116     -0.24980485                  1_GWF-(1,306,196)      -12.536643                  1_GWF-(2,391,502)
        456          3        117 -2.85123218E-02                  1_GWF-(1,306,196)      -12.482362                  1_GWF-(1,391,502)
        457          3        118  2.23455161E-02                  1_GWF-(1,306,196)      -12.482513                  1_GWF-(1,391,502)
        458          3        119  6.19364210E-02                  1_GWF-(1,306,196)      -12.456989                  1_GWF-(2,391,502)
        459          3        120 -1.55052614E-02                  1_GWF-(1,306,196)      -12.456246                  1_GWF-(2,391,502)
        460          3        121       1.2629222                  1_GWF-(1,306,196)      -12.487693                  1_GWF-(1,391,502)
        461          3        122     -0.68858978                  1_GWF-(1,306,196)      -12.505608                  1_GWF-(2,391,502)
        462          3        123     -0.84752621                  1_GWF-(1,306,196)      -12.437260                  1_GWF-(2,391,502)
        463          3        124  6.21063429E-03                  1_GWF-(1,321,524)      -12.355217                  1_GWF-(2,391,502)
        464          3        125 -8.57636389E-02                  1_GWF-(1,306,196)      -12.333115                  1_GWF-(1,391,502)
        465          3        126  9.30561359E-03                  1_GWF-(1,391,502)      -12.348598                  1_GWF-(2,391,502)
        466          3        127  6.96214568E-03                  1_GWF-(1,306,196)      -12.330323                  1_GWF-(1,391,502)
        467          3        128 -1.00825707E-02                  1_GWF-(1,306,196)      -12.321878                  1_GWF-(1,391,502)
        468          3        129  4.44214607E-03                  1_GWF-(2,391,502)      -12.324238                  1_GWF-(1,391,502)
        469          3        130  7.46527137E-03                  1_GWF-(1,391,502)      -12.303696                  1_GWF-(1,391,502)
        470          3        131  7.49996486E-02                  1_GWF-(1,391,502)      -12.245629                  1_GWF-(1,391,502)
        471          3        132 -2.96558350E-02                  1_GWF-(1,391,502)      -12.250084                  1_GWF-(2,391,502)
        472          3        133      0.17252729                  1_GWF-(1,391,502)      -12.060126                  1_GWF-(2,391,502)
        473          3        134 -4.17977993E-02                  1_GWF-(1,391,502)      -12.106198                  1_GWF-(2,391,502)
        474          3        135 -7.66548271E-03                  1_GWF-(1,391,502)      -12.113998                  1_GWF-(2,391,502)
        475          3        136 -6.33991219E-03                  1_GWF-(1,391,502)      -12.119193                  1_GWF-(1,391,502)
        476          3        137  3.76409778E-03                  1_GWF-(1,391,502)      -12.119729                  1_GWF-(2,391,502)
        477          3        138  9.58294926E-02                  1_GWF-(1,391,502)      -12.032554                  1_GWF-(2,391,502)
        478          3        139  1.63927596E-02                  1_GWF-(2,391,502)      -11.990629                  1_GWF-(2,391,502)
        479          3        140  4.80703750E-03                  1_GWF-(1,300,528)      -11.994944                  1_GWF-(2,391,502)
        480          3        141 -3.68905223E-02                  1_GWF-(1,391,502)      -12.029472                  1_GWF-(2,391,502)
        481          3        142  7.32768340E-02                  1_GWF-(1,391,502)      -11.952994                  1_GWF-(2,391,502)
        482          3        143  8.52248473E-02                  1_GWF-(1,391,502)      -11.879080                  1_GWF-(2,391,502)
        483          3        144 -1.20459847E-03                  1_GWF-(4,189,558)      -11.852824                  1_GWF-(1,391,502)
        484          3        145 -1.01550078E-02                  1_GWF-(1,391,502)      -11.865095                  1_GWF-(2,391,502)
        485          3        146  1.33710795E-02                  1_GWF-(1,242,544)      -11.861690                  1_GWF-(1,391,502)
        486          3        147  3.78186667E-02                  1_GWF-(1,391,502)      -11.851880                  1_GWF-(2,391,502)
        487          3        148  1.58347400E-02                  1_GWF-(1,242,544)      -11.818731                  1_GWF-(1,391,502)
        488          3        149  9.35903931E-03                  1_GWF-(1,391,502)      -11.808483                  1_GWF-(2,391,502)
        489          3        150  1.05076238E-02                  1_GWF-(1,391,502)      -11.797159                  1_GWF-(2,391,502)
        490          3        151  8.42590450E-03                  1_GWF-(1,391,502)      -11.786849                  1_GWF-(2,391,502)
        491          3        152 -5.87520634E-03                  1_GWF-(1,242,545)      -11.791142                  1_GWF-(2,391,502)
        492          3        153  1.33128145E-02                  1_GWF-(1,391,502)      -11.777605                  1_GWF-(2,391,502)
        493          3        154      0.18697692                  1_GWF-(1,391,502)      -11.569641                  1_GWF-(2,391,502)
        494          3        155      0.19953294                  1_GWF-(1,391,502)      -11.347373                  1_GWF-(2,391,502)
[...]
       3655         42         27 -2.66018242E-04                  1_GWF-(1,309,185)      0.21388405                  1_GWF-(1,310,190)
       3656         42         28 -4.16429211E-03                  1_GWF-(1,309,192)      0.10538735                  1_GWF-(1,316,184)
       3657         42         29  2.03765433E-03                  1_GWF-(1,309,192)  8.15016179E-02                  1_GWF-(1,311,190)
       3658         42         30 -9.28249073E-04                  1_GWF-(2,311,189)  7.20949429E-02                  1_GWF-(1,314,188)
       3659         42         31 -4.95127533E-05                  1_GWF-(1,308,193)  6.11949763E-02                  1_GWF-(1,313,185)
       3660         43          1     -0.39325322                  1_GWF-(1,300,202)       45.415921                  1_GWF-(1,300,201)
       3661         43          2 -9.57471132E-02                  1_GWF-(1,300,201)      -28.865511                  1_GWF-(1,301,199)
       3662         43          3  8.75229531E-02                  1_GWF-(1,301,199)      -9.7611614                  1_GWF-(1,302,197)
       3663         43          4     -0.10912973                  1_GWF-(1,302,198)      -33.146187                  1_GWF-(1,302,198)
       3664         43          5      0.16196638                  1_GWF-(1,302,198)      -10.089272                  1_GWF-(1,304,196)
       3665         43          6  6.71056264E-03                  1_GWF-(1,303,197)      -9.5309777                  1_GWF-(1,304,196)
       3666         43          7  7.27870040E-02                  1_GWF-(1,305,195)      -8.4093503                  1_GWF-(1,306,195)
       3667         43          8  1.24339153E-02                  1_GWF-(1,306,195)      -6.5372732                  1_GWF-(1,306,194)
       3668         43          9  5.73076429E-02                  1_GWF-(1,306,194)       7.7768576                  1_GWF-(1,306,195)
       3669         43         10 -4.23816856E-03                  1_GWF-(1,306,195)       8.2269532                  1_GWF-(1,305,195)
       3670         43         11 -9.13824643E-02                  1_GWF-(1,305,195)       7.2044627                  1_GWF-(1,307,194)
       3671         43         12 -1.57744046E-02                  1_GWF-(1,307,194)       5.3610450                  1_GWF-(1,307,193)
       3672         43         13 -1.19557581E-02                  1_GWF-(1,307,193)       3.6824914                  1_GWF-(1,308,193)
       3673         43         14 -4.38941273E-03                  1_GWF-(1,308,193)       2.4404910                  1_GWF-(1,308,193)
       3674         43         15 -4.12286842E-04                  1_GWF-(1,306,194)       2.3716534                  1_GWF-(1,308,193)
       3675         43         16  3.22430081E-03                  1_GWF-(1,308,191)       3.4420507                  1_GWF-(1,308,193)
       3676         43         17 -5.29112906E-03                  1_GWF-(1,308,193)       2.2425911                  1_GWF-(1,308,192)
       3677         43         18 -2.75733205E-02                  1_GWF-(1,308,193)       1.1652894                  1_GWF-(1,310,190)
       3678         43         19  3.78657948E-03                  1_GWF-(1,308,193)      0.77044070                  1_GWF-(1,310,190)
       3679         43         20  1.24570255E-03                  1_GWF-(1,308,193)      0.60575507                  1_GWF-(1,310,190)
       3680         43         21 -2.46218581E-04                  1_GWF-(1,308,190)      0.49890524                  1_GWF-(1,311,190)
       3681         43         22  4.07772277E-04                  1_GWF-(1,306,190)      0.53579472                  1_GWF-(1,311,190)
       3682         43         23 -1.45538196E-03                  1_GWF-(1,307,190)      0.33839732                  1_GWF-(1,311,190)
       3683         43         24 -5.51563669E-02                  1_GWF-(1,307,190)      -6.9350632                  1_GWF-(1,310,191)
       3684         43         25  5.27645119E-02                  1_GWF-(1,307,190)      0.11246837                  1_GWF-(1,309,191)
       3685         43         26  6.64782219E-05                  1_GWF-(1,309,192)      0.12573950                  1_GWF-(1,310,191)
       3686         44          1     -0.12437629                  1_GWF-(1,300,202)       14.400675                  1_GWF-(1,300,201)
       3687         44          2  1.74085442E-02                  1_GWF-(1,299,200)       12.383765                  1_GWF-(1,300,201)
       3688         44          3 -3.76009375E-02                  1_GWF-(1,300,201)      -1.8865840                  1_GWF-(1,302,197)
       3689         44          4  3.13344108E-02                  1_GWF-(1,302,198)       7.0769126                  1_GWF-(1,302,198)
       3690         44          5 -2.37538338E-02                  1_GWF-(1,302,198)      -1.8062083                  1_GWF-(1,304,196)
       3691         44          6 -1.70533989E-03                  1_GWF-(1,305,195)      -1.9633914                  1_GWF-(1,304,196)
       3692         44          7 -8.34606141E-03                  1_GWF-(1,302,198)     -0.99829843                  1_GWF-(1,306,195)
       3693         44          8  5.05891624E-03                  1_GWF-(1,306,195)      0.43156018                  1_GWF-(1,302,198)
       3694         44          9 -5.72992770E-02                  1_GWF-(1,304,196)       11.581010                  1_GWF-(1,306,195)
       3695         44         10 -6.50585543E-02                  1_GWF-(1,306,194)      -3.2038777                  1_GWF-(1,306,195)
       3696         44         11 -1.99573198E-02                  1_GWF-(1,304,196)       1.2021022                  1_GWF-(1,307,194)
       3697         44         12 -3.29175343E-03                  1_GWF-(1,306,194)       1.0041374                  1_GWF-(1,307,193)
       3698         44         13 -3.73682591E-03                  1_GWF-(1,307,193)      0.86404253                  1_GWF-(1,308,192)
       3699         44         14 -2.40495773E-03                  1_GWF-(1,308,193)      0.72827997                  1_GWF-(1,308,192)
       3700         44         15  1.19881332E-03                  1_GWF-(1,305,195)      0.57262655                  1_GWF-(1,308,192)
       3701         44         16 -5.52536737E-03                  1_GWF-(1,305,195)       1.1125096                  1_GWF-(1,308,192)
       3702         44         17  1.52782464E-02                  1_GWF-(1,305,195)     -0.41422430                  1_GWF-(1,308,192)
       3703         44         18  1.97430748E-03                  1_GWF-(1,306,195)     -0.49711164                  1_GWF-(1,309,192)
       3704         44         19 -5.96318287E-03                  1_GWF-(1,305,195)      0.17794789                  1_GWF-(1,310,191)
       3705         44         20  1.28130037E-03                  1_GWF-(1,305,195)      0.12861057                  1_GWF-(1,310,190)
       3706         44         21 -7.59272600E-05                  1_GWF-(1,306,195)      0.10177434                  1_GWF-(1,311,190)
       3707         45          1 -4.98849286E-02                  1_GWF-(1,300,203)       2.0245382                  1_GWF-(1,300,201)
       3708         45          2 -9.06266495E-03                  1_GWF-(1,300,203)      0.51684098                  1_GWF-(1,300,200)
       3709         45          3 -7.75559780E-04                  1_GWF-(1,300,203)      0.51247202                  1_GWF-(1,300,200)
       3710         45          4     -0.58811410                  1_GWF-(1,300,203)       101.21570                  1_GWF-(1,302,198)
       3711         45          5      0.59752691                  1_GWF-(1,300,203)      -2.5321064                  1_GWF-(1,303,197)
       3712         45          6 -1.77192145E-02                  1_GWF-(1,302,198)       1.7813884                  1_GWF-(1,304,196)
       3713         45          7 -4.14864598E-03                  1_GWF-(1,304,196)       1.1738070                  1_GWF-(1,304,196)
       3714         45          8  2.94845062E-03                  1_GWF-(1,302,198)      0.96765746                  1_GWF-(1,305,195)
       3715         45          9 -4.48497567E-03                  1_GWF-(1,305,195)      0.63116239                  1_GWF-(1,306,195)
       3716         45         10  5.69782462E-03                  1_GWF-(1,306,195)       2.2926973                  1_GWF-(1,306,195)
       3717         45         11 -7.85347326E-03                  1_GWF-(1,306,195)      0.22820123                  1_GWF-(1,306,195)
       3718         45         12 -4.96186534E-04                  1_GWF-(1,306,194)     -0.17425539                  1_GWF-(1,303,197)
       3719         45         13  2.79652384E-03                  1_GWF-(1,304,196)     -0.21996105                  1_GWF-(1,306,194)
       3720         45         14  5.54813590E-03                  1_GWF-(1,305,195)     -0.36150565                  1_GWF-(1,308,193)
       3721         45         15 -1.65070633E-03                  1_GWF-(1,305,195)     -0.21936450                  1_GWF-(1,308,193)
       3722         45         16  9.33536532E-04                  1_GWF-(1,308,193)     -0.11554394                  1_GWF-(1,308,192)
       3723         45         17  7.42077738E-04                  1_GWF-(1,308,193)  6.50807150E-02                  1_GWF-(1,312,188)
       3724         45         18  2.43281571E-04                  1_GWF-(1,306,194) -6.89104376E-02                  1_GWF-(1,309,192)
       3725         45         19  3.05389828E-05                  1_GWF-(1,308,191) -6.20131997E-02                  1_GWF-(1,308,192)
       3726         46          1  3.49564046E-03                  1_GWF-(4,300,201)     -0.29046558                  1_GWF-(1,298,202)
       3727         46          2 -1.93746713E-03                  1_GWF-(1,300,203)      0.16855314                  1_GWF-(1,301,199)
       3728         46          3 -1.29640628E-03                  1_GWF-(1,301,199)      0.15543203                  1_GWF-(1,302,198)
       3729         46          4 -1.48327698E-03                  1_GWF-(1,302,198)      0.18687116                  1_GWF-(1,302,197)
       3730         46          5 -1.93375083E-03                  1_GWF-(1,303,197)      0.25623167                  1_GWF-(1,304,197)
       3731         46          6 -3.35956888E-03                  1_GWF-(1,303,197)     -0.58140077                  1_GWF-(1,302,198)
       3732         46          7 -7.81300070E-04                  1_GWF-(1,305,196)      0.57429774                  1_GWF-(1,305,195)
       3733         46          8  2.12831340E-03                  1_GWF-(1,303,197)      0.32544255                  1_GWF-(1,306,195)
       3734         46          9 -8.92863670E-04                  1_GWF-(1,305,195)      0.30494437                  1_GWF-(1,306,195)
       3735         46         10  8.48429817E-03                  1_GWF-(1,306,194)       1.5108881                  1_GWF-(1,305,195)
       3736         46         11 -1.57933596E-02                  1_GWF-(1,306,194)     -0.97396721                  1_GWF-(1,305,195)
       3737         46         12  1.94130352E-03                  1_GWF-(1,306,194)     -0.92240799                  1_GWF-(1,306,195)
       3738         46         13 -1.41432811E-02                  1_GWF-(1,304,196)       1.1280935                  1_GWF-(1,307,194)
       3739         46         14  8.25859151E-03                  1_GWF-(1,304,196)      0.34922507                  1_GWF-(1,308,192)
       3740         46         15 -2.22038598E-03                  1_GWF-(1,304,196)      0.38507884                  1_GWF-(1,308,193)
       3741         46         16 -3.17804449E-03                  1_GWF-(1,305,195)      0.60814907                  1_GWF-(1,308,192)
       3742         46         17  1.73052778E-02                  1_GWF-(1,305,195)     -0.33792661                  1_GWF-(1,308,192)
       3743         46         18  1.73998507E-03                  1_GWF-(1,306,194)     -0.35419226                  1_GWF-(1,308,192)
       3744         46         19 -2.86470386E-03                  1_GWF-(1,305,195)     -0.18264724                  1_GWF-(1,308,192)
       3745         46         20 -5.74487547E-03                  1_GWF-(1,305,195)      0.14538189                  1_GWF-(1,308,192)
       3746         46         21  3.97031037E-03                  1_GWF-(1,305,195) -7.51973740E-02                  1_GWF-(1,310,191)
       3747         46         22 -1.33351566E-03                  1_GWF-(1,305,195) -4.21806422E-02                  1_GWF-(1,310,191)
       3748         46         23 -4.09044372E-04                  1_GWF-(1,305,195)  3.06639287E-02                  1_GWF-(1,305,195)
       3749         46         24  8.93929863E-05                  1_GWF-(1,308,192) -3.54918837E-02                  1_GWF-(1,310,190)
       3750         47          1 -7.67725447E-04                  1_GWF-(1,299,202) -8.72374083E-02                  1_GWF-(1,298,202)
       3751         47          2 -3.49781526E-04                  1_GWF-(1,314,192)  5.50761665E-02                  1_GWF-(1,300,199)
       3752         47          3 -3.80135461E-04                  1_GWF-(1,301,199)  5.82070190E-02                  1_GWF-(1,301,198)
       3753         47          4 -5.37432184E-04                  1_GWF-(1,302,198)  7.75199239E-02                  1_GWF-(1,302,197)
       3754         47          5 -9.88065297E-04                  1_GWF-(1,302,198)     -0.11445391                  1_GWF-(1,301,199)
       3755         47          6  6.78627431E-04                  1_GWF-(1,303,197)      0.14946642                  1_GWF-(1,303,197)
       3756         47          7     -0.40806702                  1_GWF-(1,304,196)      -35.310772                  1_GWF-(1,303,197)
       3757         47          8      0.40401384                  1_GWF-(1,304,196)     -0.26169336                  1_GWF-(1,303,197)
       3758         47          9  4.10924315E-03                  1_GWF-(1,305,195) -8.72421874E-02                  1_GWF-(1,306,195)
       3759         47         10 -2.20539637E-03                  1_GWF-(1,305,195)     -0.10126616                  1_GWF-(1,303,197)
       3760         47         11  4.48583203E-04                  1_GWF-(1,303,197) -7.04286956E-02                  1_GWF-(1,304,196)
       3761         47         12  4.22121053E-04                  1_GWF-(1,304,196) -6.40041065E-02                  1_GWF-(1,305,195)
       3762         47         13  1.88663901E-05                  1_GWF-(1,305,195) -6.61486749E-02                  1_GWF-(1,304,196)
       3763         48          1 -4.00647404E-04                  1_GWF-(4,310,191)  5.16090472E-02                  1_GWF-(1,308,193)
       3764         48          2 -2.78349563E-04                  1_GWF-(1,314,192)  2.28165131E-02                  1_GWF-(1,308,192)
       3765         48          3  1.63830045E-04                  1_GWF-(1,305,195)  2.64641236E-02                  1_GWF-(1,309,192)
       3766         48          4  4.01756948E-04                  1_GWF-(1,305,195)  4.44384977E-02                  1_GWF-(1,310,191)
       3767         48          5  8.25014470E-04                  1_GWF-(1,305,195)  7.97136452E-02                  1_GWF-(1,304,196)
       3768         48          6  9.52271881E-04                  1_GWF-(1,305,195)      0.18759022                  1_GWF-(1,304,196)
       3769         48          7 -2.67487394E-04                  1_GWF-(1,305,196)      0.17965251                  1_GWF-(1,305,195)
       3770         48          8 -1.26595702E-03                  1_GWF-(1,306,194) -9.31983880E-02                  1_GWF-(1,306,195)
       3771         48          9  4.98198906E-04                  1_GWF-(1,306,194)  7.55752459E-02                  1_GWF-(1,305,195)
       3772         48         10  1.46731748E-04                  1_GWF-(1,306,194)      0.11049228                  1_GWF-(1,305,195)
       3773         48         11 -6.26670644E-04                  1_GWF-(1,306,194) -4.99023450E-02                  1_GWF-(1,306,194)
       3774         48         12  3.40701207E-04                  1_GWF-(1,308,190) -9.19631676E-02                  1_GWF-(1,306,194)
       3775         48         13  4.60220641E-04                  1_GWF-(1,308,189)     -0.13120282                  1_GWF-(1,306,194)
       3776         48         14  5.38689749E-03                  1_GWF-(1,308,189)     -0.53855034                  1_GWF-(1,306,194)
       3777         48         15 -7.91711436E-03                  1_GWF-(1,308,189)  8.01868936E-02                  1_GWF-(1,308,193)
       3778         48         16  4.81201987E-04                  1_GWF-(1,308,189)  5.19517974E-02                  1_GWF-(1,308,192)
       3779         48         17  3.24505256E-04                  1_GWF-(1,304,196) -3.90383577E-02                  1_GWF-(1,305,195)
       3780         48         18 -9.06238039E-04                  1_GWF-(1,309,192) -6.90007347E-02                  1_GWF-(1,309,192)
       3781         48         19 -4.51496759E-04                  1_GWF-(1,309,191) -5.88159674E-02                  1_GWF-(1,308,192)
       3782         48         20  7.89987491E-04                  1_GWF-(1,309,192) -1.46129980E-02                  1_GWF-(1,306,195)
       3783         48         21  4.62391361E-05                  1_GWF-(1,308,192) -1.51562131E-02                  1_GWF-(1,308,192)
       3784         49          1 -4.70322564E-04                  1_GWF-(4,314,192)  8.56958938E-02                  1_GWF-(1,308,193)
       3785         49          2 -2.69338108E-04                  1_GWF-(1,308,187) -3.21731047E-02                  1_GWF-(1,310,190)
       3786         49          3 -6.80433645E-05                  1_GWF-(1,308,190) -2.34157297E-02                  1_GWF-(1,310,190)
       3787         50          1 -2.18830259E-04                  1_GWF-(4,310,189)  4.72766782E-02                  1_GWF-(1,308,193)
       3788         50          2 -1.40885914E-04                  1_GWF-(1,308,187) -2.27126914E-02                  1_GWF-(1,310,190)
       3789         50          3  5.01370906E-05                  1_GWF-(1,305,195) -1.59951549E-02                  1_GWF-(1,310,190)
       3790         51          1 -1.01977051E-04                  1_GWF-(4,310,189)  2.04830573E-02                  1_GWF-(1,308,193)
       3791         51          2 -6.49904556E-05                  1_GWF-(1,308,187) -1.42974382E-02                  1_GWF-(1,310,190)
       3792         52          1 -5.69547979E-05                  1_GWF-(4,306,194) -1.03710165E-02                  1_GWF-(1,310,191)
 --------------------------------------------------------------------------------------------------------------------------------------



 MEMORY MANAGER TOTAL STORAGE BY DATA TYPE, IN MEGABYTES
 -------------------------------
                    ALLOCATED   
 DATA TYPE           MEMORY     
 -------------------------------
 Character        0.49654900    
 Logical          4.40000000E-05
 Integer          104.56928     
 Real             182.42202     
 -------------------------------
 Total            287.48790     
 -------------------------------


 
 Run end date and time (yyyy/mm/dd hh:mm:ss): 2021/03/08 20:54:47
 Elapsed run time: 55.261 Seconds

WARNING REPORT:

  1. NONLINEAR BLOCK VARIABLE 'OUTER_HCLOSE' IN FILE 'mfsim.ims' WAS
     DEPRECATED IN VERSION 6.1.1. SETTING OUTER_DVCLOSE TO OUTER_HCLOSE VALUE.
  2. NONLINEAR BLOCK VARIABLE 'OUTER_RCLOSEBND' IN FILE 'mfsim.ims' WAS
     DEPRECATED IN VERSION 6.1.1. OUTER_DVCLOSE IS USED TO EVALUATE PACKAGE
     CONVERGENCE.
  3. LINEAR BLOCK VARIABLE 'INNER_HCLOSE' IN FILE 'mfsim.ims' WAS DEPRECATED
     IN VERSION 6.1.1. SETTING INNER_DVCLOSE TO INNER_HCLOSE VALUE.
 Normal termination of simulation.
